* NGSPICE file created from user_project_wrapper.ext - technology: gf180mcuD

.subckt XM2_x4_latch G D w_n319_n356# S
MX0 D G S w_n319_n356# pfet_06v0 ad=0.44p pd=2.88u as=0.44p ps=2.88u w=1u l=0.55u
.ends

.subckt XM1_x4_latch G D a_n302_n324# S
MX0 D G S a_n302_n324# nfet_06v0 ad=0.44p pd=2.88u as=0.44p ps=2.88u w=1u l=0.7u
.ends

.subckt x4_latch inv_out inv_in vdd vss
XXM2_x4_latch_0 inv_in inv_out vdd vdd XM2_x4_latch
XXM1_x4_latch_0 inv_in inv_out vss vss XM1_x4_latch
.ends

.subckt XM2_x3_latch G D w_n319_n356# S
MX0 S G D w_n319_n356# pfet_06v0 ad=0.44p pd=2.88u as=0.44p ps=2.88u w=1u l=0.55u
.ends

.subckt XM1_x3_latch G D a_n319_n324# S
MX0 S G D a_n319_n324# nfet_06v0 ad=0.44p pd=2.88u as=0.44p ps=2.88u w=1u l=0.7u
.ends

.subckt x3_latch inv_out inv_in vdd vss
XXM2_x3_latch_0 inv_in inv_out vdd vdd XM2_x3_latch
XXM1_x3_latch_0 inv_in inv_out vss vss XM1_x3_latch
.ends

.subckt XM4_latch G D a_n319_n324# S a_n319_252#
MX0 D G S a_n319_n324# nfet_06v0 ad=0.44p pd=2.88u as=0.44p ps=2.88u w=1u l=0.7u
.ends

.subckt XM2_x2_latch G D w_n319_n356# S
MX0 D G S w_n319_n356# pfet_06v0 ad=0.44p pd=2.88u as=0.44p ps=2.88u w=1u l=0.55u
.ends

.subckt XM1_x2_latch G a_n320_n324# D a_n318_252# S
MX0 D G S a_n320_n324# nfet_06v0 ad=0.44p pd=2.88u as=0.44p ps=2.88u w=1u l=0.7u
.ends

.subckt x2_latch inv_out inv_in XM1_x2_latch_0/a_n318_252# vdd vss
XXM2_x2_latch_0 inv_in inv_out vdd vdd XM2_x2_latch
XXM1_x2_latch_0 inv_in vss inv_out XM1_x2_latch_0/a_n318_252# vss XM1_x2_latch
.ends

.subckt XM3_latch G D a_n319_n324# S a_n319_252#
MX0 D G S a_n319_n324# nfet_06v0 ad=0.44p pd=2.88u as=0.44p ps=2.88u w=1u l=0.7u
.ends

.subckt XM2_x1_latch G D w_n319_n356# S
MX0 D G S w_n319_n356# pfet_06v0 ad=0.44p pd=2.88u as=0.44p ps=2.88u w=1u l=0.55u
.ends

.subckt XM1_x1_latch G D a_n318_252# a_n318_n324# S
MX0 D G S a_n318_n324# nfet_06v0 ad=0.44p pd=2.88u as=0.44p ps=2.88u w=1u l=0.7u
.ends

.subckt x1_latch inv_out inv_in XM1_x1_latch_0/a_n318_252# vdd vss
XXM2_x1_latch_0 inv_in inv_out vdd vdd XM2_x1_latch
XXM1_x1_latch_0 inv_in inv_out XM1_x1_latch_0/a_n318_252# vss vss XM1_x1_latch
.ends

.subckt latch Q Qn R S tutyuu1 tutyuu2 vdd vss
Xx4_latch_0 tutyuu1 S vdd vss x4_latch
Xx3_latch_0 tutyuu2 R vdd vss x3_latch
XXM4_latch_0 tutyuu2 Q vss vss vss XM4_latch
Xx2_latch_0 Qn Q vss vdd vss x2_latch
XXM3_latch_0 tutyuu1 Qn vss vss vss XM3_latch
Xx1_latch_0 Q Qn vss vdd vss x1_latch
.ends

.subckt XM1_inv2 VSUBS G D S
MX0 D G S VSUBS nfet_06v0 ad=0.44p pd=2.88u as=0.44p ps=2.88u w=1u l=0.7u
.ends

.subckt XM2_inv2 VSUBS G D S
MX0 D G S VSUBS pfet_06v0 ad=0.44p pd=2.88u as=0.44p ps=2.88u w=1u l=0.55u
.ends

.subckt inv2 inv_out inv_in vss
XXM1_inv2_0 vss inv_in inv_out vss XM1_inv2
XXM2_inv2_0 vss inv_in inv_out vss XM2_inv2
.ends

.subckt XM1_inv1 VSUBS G D S
MX0 D G S VSUBS nfet_06v0 ad=0.44p pd=2.88u as=0.44p ps=2.88u w=1u l=0.7u
.ends

.subckt XM2_inv1 VSUBS G D S
MX0 D G S VSUBS pfet_06v0 ad=0.44p pd=2.88u as=0.44p ps=2.88u w=1u l=0.55u
.ends

.subckt inv1 inv_out inv_in vss
XXM1_inv1_0 vss inv_in inv_out vss XM1_inv1
XXM2_inv1_0 vss inv_in inv_out vss XM2_inv1
.ends

.subckt buffer buf_in buf_out vss
Xinv2_0 buf_out inv2_0/inv_in vss inv2
Xinv1_0 inv2_0/inv_in buf_in vss inv1
.ends

.subckt inv_p VSS ZN I VDD VPW VNW
MX0 VDD I ZN VNW pfet_06v0 ad=1.21p pd=4.42u as=0.457p ps=1.97u w=1.22u l=0.5u M=2
MX1 ZN I VSS VPW nfet_06v0 ad=0.225p pd=1.37u as=0.508p ps=2.88u w=0.82u l=0.6u M=2
.ends

.subckt inv_renketu_p inv_p_3/I inv_p_9/ZN inv_p_6/ZN inv_p_6/I inv_p_8/I inv_p_0/ZN
+ inv_p_8/ZN inv_p_5/ZN inv_p_7/I inv_p_2/I inv_p_0/I inv_p_2/ZN inv_p_4/ZN inv_p_9/I
+ inv_p_10/I inv_p_7/ZN inv_p_5/I inv_p_1/ZN inv_p_3/ZN inv_p_4/I inv_p_10/ZN inv_p_1/I
+ vdd vss
Xinv_p_0 vss inv_p_0/ZN inv_p_0/I vdd vss vdd inv_p
Xinv_p_1 vss inv_p_1/ZN inv_p_1/I vdd vss vdd inv_p
Xinv_p_2 vss inv_p_2/ZN inv_p_2/I vdd vss vdd inv_p
Xinv_p_3 vss inv_p_3/ZN inv_p_3/I vdd vss vdd inv_p
Xinv_p_4 vss inv_p_4/ZN inv_p_4/I vdd vss vdd inv_p
Xinv_p_5 vss inv_p_5/ZN inv_p_5/I vdd vss vdd inv_p
Xinv_p_6 vss inv_p_6/ZN inv_p_6/I vdd vss vdd inv_p
Xinv_p_7 vss inv_p_7/ZN inv_p_7/I vdd vss vdd inv_p
Xinv_p_8 vss inv_p_8/ZN inv_p_8/I vdd vss vdd inv_p
Xinv_p_9 vss inv_p_9/ZN inv_p_9/I vdd vss vdd inv_p
Xinv_p_10 vss inv_p_10/ZN inv_p_10/I vdd vss vdd inv_p
.ends

.subckt XMs2_bs_p G D a_n302_n324# a_n302_252# S
MX0 D G S a_n302_n324# nfet_06v0 ad=0.44p pd=2.88u as=0.44p ps=2.88u w=1u l=0.7u
.ends

.subckt XM3_bs_p G D w_n319_n356# S
MX0 D G S w_n319_n356# pfet_06v0 ad=0.44p pd=2.88u as=0.44p ps=2.88u w=1u l=0.55u
.ends

.subckt XM2_bs_inv_p G D w_n319_n356# S
MX0 D G S w_n319_n356# pfet_06v0 ad=0.44p pd=2.88u as=0.44p ps=2.88u w=1u l=0.55u
.ends

.subckt XM1_bs_inv_p G D a_n302_n324# S
MX0 D G S a_n302_n324# nfet_06v0 ad=0.44p pd=2.88u as=0.44p ps=2.88u w=1u l=0.7u
.ends

.subckt bs_inv_p inv_out vdd inv_in vss
XXM2_bs_inv_p_0 inv_in inv_out vdd vdd XM2_bs_inv_p
XXM1_bs_inv_p_0 inv_in inv_out vss vss XM1_bs_inv_p
.ends

.subckt XM4_bs_p G D w_n319_n356# S
MX0 D G S w_n319_n356# pfet_06v0 ad=0.44p pd=2.88u as=0.44p ps=2.88u w=1u l=0.55u
.ends

.subckt bs_cap_p I1_1_1_R0_BOT I1_1_1_R0_TOP
X0 I1_1_1_R0_TOP I1_1_1_R0_BOT cap_mim_2f0fF c_width=12.3u c_length=12.3u
.ends

.subckt XMs_bs_p G D a_n302_n324# S
MX0 D G S a_n302_n324# nfet_06v0 ad=0.44p pd=2.88u as=0.44p ps=2.88u w=1u l=0.7u
.ends

.subckt XM1_bs_p G D a_n302_n324# a_n302_252# S
MX0 D G S a_n302_n324# nfet_06v0 ad=0.44p pd=2.88u as=0.44p ps=2.88u w=1u l=0.7u
.ends

.subckt XMs1_bs_p G D a_n302_n324# S
MX0 D G S a_n302_n324# nfet_06v0 ad=0.44p pd=2.88u as=0.44p ps=2.88u w=1u l=0.7u
.ends

.subckt XM2_bs_p G D a_n302_n324# a_n302_252# S
MX0 D G S a_n302_n324# nfet_06v0 ad=0.44p pd=2.88u as=0.44p ps=2.88u w=1u l=0.7u
.ends

.subckt bootstrapped_sw_p vdd en enb bs_in bs_out vg vs vbsh vbsl vss
XXMs2_bs_p_0 enb vss vss vss vs XMs2_bs_p
XXM3_bs_p_0 enb vg vbsh vbsh XM3_bs_p
Xbs_inv_p_0 enb vdd en vss bs_inv_p
XXM4_bs_p_0 vg vdd vbsh vbsh XM4_bs_p
Xbs_cap_p_0 vbsl vbsh bs_cap_p
Xbs_cap_p_1 vbsl vbsh bs_cap_p
Xbs_cap_p_2 vbsl vbsh bs_cap_p
Xbs_cap_p_3 vbsl vbsh bs_cap_p
Xbs_cap_p_4 vbsl vbsh bs_cap_p
XXMs_bs_p_0 vg bs_out vss bs_in XMs_bs_p
XXM1_bs_p_0 vg vbsl vss vss bs_in XM1_bs_p
XXMs1_bs_p_0 vdd vs vss vg XMs1_bs_p
XXM2_bs_p_0 enb vbsl vss vss vss XM2_bs_p
.ends

.subckt dacp dac_in dac_out dum ctl1 ctl2 ctl3 ctl4 ctl5 ctl6 ctl7 ctl8 ctl9 ctl10
+ sample vdd_uq0 vdd vss
Xinv_renketu_p_0 ctl1 carray_p_0/n8 carray_p_0/n5 ctl5 ctl7 carray_p_0/ndum carray_p_0/n7
+ carray_p_0/n4 ctl6 ctl10 dum carray_p_0/n0 carray_p_0/n3 ctl8 ctl9 carray_p_0/n6
+ ctl4 carray_p_0/n2 carray_p_0/n1 ctl3 carray_p_0/n9 ctl2 vdd vss inv_renketu_p
Xbootstrapped_sw_p_0 vdd_uq0 sample bootstrapped_sw_p_0/enb dac_in dac_out bootstrapped_sw_p_0/vg
+ bootstrapped_sw_p_0/vs bootstrapped_sw_p_0/vbsh bootstrapped_sw_p_0/vbsl vss bootstrapped_sw_p
.ends

.subckt inv_n VSS ZN I VDD VPW VNW
MX0 VDD I ZN VNW pfet_06v0 ad=1.21p pd=4.42u as=0.457p ps=1.97u w=1.22u l=0.5u M=2
MX1 ZN I VSS VPW nfet_06v0 ad=0.225p pd=1.37u as=0.508p ps=2.88u w=0.82u l=0.6u M=2
.ends

.subckt inv_renketu_n inv_n_3/I inv_n_9/ZN inv_n_6/ZN inv_n_6/I inv_n_8/I inv_n_0/ZN
+ inv_n_8/ZN inv_n_5/ZN inv_n_7/I inv_n_2/I inv_n_0/I inv_n_2/ZN inv_n_4/ZN inv_n_9/I
+ inv_n_10/I inv_n_7/ZN inv_n_5/I inv_n_1/ZN inv_n_3/ZN vdd inv_n_4/I inv_n_10/ZN
+ inv_n_1/I vss
Xinv_n_0 vss inv_n_0/ZN inv_n_0/I vdd vss vdd inv_n
Xinv_n_1 vss inv_n_1/ZN inv_n_1/I vdd vss vdd inv_n
Xinv_n_2 vss inv_n_2/ZN inv_n_2/I vdd vss vdd inv_n
Xinv_n_3 vss inv_n_3/ZN inv_n_3/I vdd vss vdd inv_n
Xinv_n_4 vss inv_n_4/ZN inv_n_4/I vdd vss vdd inv_n
Xinv_n_5 vss inv_n_5/ZN inv_n_5/I vdd vss vdd inv_n
Xinv_n_6 vss inv_n_6/ZN inv_n_6/I vdd vss vdd inv_n
Xinv_n_7 vss inv_n_7/ZN inv_n_7/I vdd vss vdd inv_n
Xinv_n_8 vss inv_n_8/ZN inv_n_8/I vdd vss vdd inv_n
Xinv_n_9 vss inv_n_9/ZN inv_n_9/I vdd vss vdd inv_n
Xinv_n_10 vss inv_n_10/ZN inv_n_10/I vdd vss vdd inv_n
.ends

.subckt XMs1_bs_n G D a_n302_n324# S
MX0 D G S a_n302_n324# nfet_06v0 ad=0.44p pd=2.88u as=0.44p ps=2.88u w=1u l=0.7u
.ends

.subckt XM2_bs_n G D a_n302_n324# a_n302_252# S
MX0 D G S a_n302_n324# nfet_06v0 ad=0.44p pd=2.88u as=0.44p ps=2.88u w=1u l=0.7u
.ends

.subckt XMs2_bs_n G D a_n302_n324# a_n302_252# S
MX0 D G S a_n302_n324# nfet_06v0 ad=0.44p pd=2.88u as=0.44p ps=2.88u w=1u l=0.7u
.ends

.subckt XM3_bs_n G D w_n319_n356# S
MX0 D G S w_n319_n356# pfet_06v0 ad=0.44p pd=2.88u as=0.44p ps=2.88u w=1u l=0.55u
.ends

.subckt XM1_bs_inv_n G D a_n302_n324# S
MX0 D G S a_n302_n324# nfet_06v0 ad=0.44p pd=2.88u as=0.44p ps=2.88u w=1u l=0.7u
.ends

.subckt XM2_bs_inv_n G D w_n319_n356# S
MX0 D G S w_n319_n356# pfet_06v0 ad=0.44p pd=2.88u as=0.44p ps=2.88u w=1u l=0.55u
.ends

.subckt bs_inv_n inv_out vdd inv_in vss
XXM1_bs_inv_n_0 inv_in inv_out vss vss XM1_bs_inv_n
XXM2_bs_inv_n_0 inv_in inv_out vdd vdd XM2_bs_inv_n
.ends

.subckt XM4_bs_n G D w_n319_n356# S
MX0 D G S w_n319_n356# pfet_06v0 ad=0.44p pd=2.88u as=0.44p ps=2.88u w=1u l=0.55u
.ends

.subckt bs_cap_n I1_1_1_R0_BOT I1_1_1_R0_TOP
X0 I1_1_1_R0_TOP I1_1_1_R0_BOT cap_mim_2f0fF c_width=12.3u c_length=12.3u
.ends

.subckt XMs_bs_n G D a_n302_n324# S
MX0 D G S a_n302_n324# nfet_06v0 ad=0.44p pd=2.88u as=0.44p ps=2.88u w=1u l=0.7u
.ends

.subckt XM1_bs_n G D a_n302_n324# a_n302_252# S
MX0 D G S a_n302_n324# nfet_06v0 ad=0.44p pd=2.88u as=0.44p ps=2.88u w=1u l=0.7u
.ends

.subckt bootstrapped_sw_n vdd en enb bs_in bs_out vg vs vbsh vbsl vss
XXMs1_bs_n_0 vdd vs vss vg XMs1_bs_n
XXM2_bs_n_0 enb vbsl vss vss vss XM2_bs_n
XXMs2_bs_n_0 enb vss vss vss vs XMs2_bs_n
XXM3_bs_n_0 enb vg vbsh vbsh XM3_bs_n
Xbs_inv_n_0 enb vdd en vss bs_inv_n
XXM4_bs_n_0 vg vdd vbsh vbsh XM4_bs_n
Xbs_cap_n_0 vbsl vbsh bs_cap_n
Xbs_cap_n_1 vbsl vbsh bs_cap_n
Xbs_cap_n_2 vbsl vbsh bs_cap_n
Xbs_cap_n_4 vbsl vbsh bs_cap_n
Xbs_cap_n_3 vbsl vbsh bs_cap_n
XXMs_bs_n_0 vg bs_out vss bs_in XMs_bs_n
XXM1_bs_n_0 vg vbsl vss vss bs_in XM1_bs_n
.ends

.subckt dacn dac_in dac_out dum ctl1 ctl2 ctl3 ctl4 ctl5 ctl6 ctl7 ctl8 ctl9 ctl10
+ sample vdd_uq0 vdd vss
Xinv_renketu_n_0 ctl1 carray_n_0/n8 carray_n_0/n5 ctl5 ctl7 carray_n_0/ndum carray_n_0/n7
+ carray_n_0/n4 ctl6 ctl10 dum carray_n_0/n0 carray_n_0/n3 ctl8 ctl9 carray_n_0/n6
+ ctl4 carray_n_0/n2 carray_n_0/n1 vdd ctl3 carray_n_0/n9 ctl2 vss inv_renketu_n
Xbootstrapped_sw_n_0 vdd_uq0 sample bootstrapped_sw_n_0/enb dac_in dac_out bootstrapped_sw_n_0/vg
+ bootstrapped_sw_n_0/vs bootstrapped_sw_n_0/vbsh bootstrapped_sw_n_0/vbsl vss bootstrapped_sw_n
.ends

.subckt XMdiff_cmp a_192_n100# a_n280_n100# a_n192_n183# a_n52_n100# a_n424_n324#
+ a_52_n183#
MX0 a_192_n100# a_52_n183# a_n52_n100# a_n424_n324# nfet_06v0 ad=0.44p pd=2.88u as=0.26p ps=1.52u w=1u l=0.7u
MX1 a_n52_n100# a_n192_n183# a_n280_n100# a_n424_n324# nfet_06v0 ad=0.26p pd=1.52u as=0.44p ps=2.88u w=1u l=0.7u
.ends

.subckt XM3_trims_right a_n2052_n100# a_n2668_n324# a_n1808_n100# a_n1948_n183# a_n1564_n100#
+ a_n2524_n100# a_n1704_n183# a_n2296_n100# a_n2192_n183# a_n2436_n183#
MX0 a_n2052_n100# a_n2192_n183# a_n2296_n100# a_n2668_n324# nfet_06v0 ad=0.26p pd=1.52u as=0.26p ps=1.52u w=1u l=0.7u
MX1 a_n1564_n100# a_n1704_n183# a_n1808_n100# a_n2668_n324# nfet_06v0 ad=0.44p pd=2.88u as=0.26p ps=1.52u w=1u l=0.7u
MX2 a_n1808_n100# a_n1948_n183# a_n2052_n100# a_n2668_n324# nfet_06v0 ad=0.26p pd=1.52u as=0.26p ps=1.52u w=1u l=0.7u
MX3 a_n2296_n100# a_n2436_n183# a_n2524_n100# a_n2668_n324# nfet_06v0 ad=0.26p pd=1.52u as=0.44p ps=2.88u w=1u l=0.7u
.ends

.subckt XM0_trims_right G D a_n5334_252# a_n5334_n324# S
MX0 S G D a_n5334_n324# nfet_06v0 ad=0.44p pd=2.88u as=0.44p ps=2.88u w=1u l=0.7u
.ends

.subckt XM2_trims_right a_n4456_n324# a_n3948_n183# a_n3808_n100# a_n4280_n100# a_n4052_n100#
+ a_n4192_n183# a_n4456_252#
MX0 a_n4052_n100# a_n4192_n183# a_n4280_n100# a_n4456_n324# nfet_06v0 ad=0.26p pd=1.52u as=0.44p ps=2.88u w=1u l=0.7u
MX1 a_n3808_n100# a_n3948_n183# a_n4052_n100# a_n4456_n324# nfet_06v0 ad=0.44p pd=2.88u as=0.26p ps=1.52u w=1u l=0.7u
.ends

.subckt XM4_trims_right a_436_n100# a_192_n100# a_n1188_n324# a_n296_n100# a_784_n183#
+ a_n192_n183# a_n436_n183# a_540_n183# a_n52_n100# a_924_n100# a_680_n100# a_n1012_n100#
+ a_n784_n100# a_n924_n183# a_n680_n183# a_n540_n100# a_296_n183# a_52_n183#
MX0 a_436_n100# a_296_n183# a_192_n100# a_n1188_n324# nfet_06v0 ad=0.26p pd=1.52u as=0.26p ps=1.52u w=1u l=0.7u
MX1 a_n784_n100# a_n924_n183# a_n1012_n100# a_n1188_n324# nfet_06v0 ad=0.26p pd=1.52u as=0.44p ps=2.88u w=1u l=0.7u
MX2 a_192_n100# a_52_n183# a_n52_n100# a_n1188_n324# nfet_06v0 ad=0.26p pd=1.52u as=0.26p ps=1.52u w=1u l=0.7u
MX3 a_680_n100# a_540_n183# a_436_n100# a_n1188_n324# nfet_06v0 ad=0.26p pd=1.52u as=0.26p ps=1.52u w=1u l=0.7u
MX4 a_924_n100# a_784_n183# a_680_n100# a_n1188_n324# nfet_06v0 ad=0.44p pd=2.88u as=0.26p ps=1.52u w=1u l=0.7u
MX5 a_n52_n100# a_n192_n183# a_n296_n100# a_n1188_n324# nfet_06v0 ad=0.26p pd=1.52u as=0.26p ps=1.52u w=1u l=0.7u
MX6 a_n296_n100# a_n436_n183# a_n540_n100# a_n1188_n324# nfet_06v0 ad=0.26p pd=1.52u as=0.26p ps=1.52u w=1u l=0.7u
MX7 a_n540_n100# a_n680_n183# a_n784_n100# a_n1188_n324# nfet_06v0 ad=0.26p pd=1.52u as=0.26p ps=1.52u w=1u l=0.7u
.ends

.subckt XM1_trims_right G D a_n5302_n324# S a_n5302_252#
MX0 D G S a_n5302_n324# nfet_06v0 ad=0.44p pd=2.88u as=0.44p ps=2.88u w=1u l=0.7u
.ends

.subckt trim_switch_right d_0 d_4 d_1 d_2 d_3 n4 n2 n3 n1 n0 VSUBS
XXM3_trims_right_0 n3 VSUBS VSUBS d_3 n3 n3 d_3 VSUBS d_3 d_3 XM3_trims_right
XXM0_trims_right_0 d_0 n0 VSUBS VSUBS VSUBS XM0_trims_right
XXM2_trims_right_0 VSUBS d_2 n2 n2 VSUBS d_2 VSUBS XM2_trims_right
XXM4_trims_right_0 n4 VSUBS VSUBS VSUBS d_4 d_4 d_4 d_4 n4 n4 VSUBS n4 VSUBS d_4 d_4
+ n4 d_4 d_4 XM4_trims_right
XXM1_trims_right_0 d_1 n1 VSUBS VSUBS VSUBS XM1_trims_right
.ends

.subckt trim_right d_0 d_4 d_1 d_2 d_3 drain n1 n4 n0 n2 n3 vss
Xtrim_switch_right_0 d_0 d_4 d_1 d_2 d_3 n4 n2 n3 n1 n0 vss trim_switch_right
.ends

.subckt XMinp_cmp G D a_n302_n324# a_n302_252# S
MX0 D G S a_n302_n324# nfet_06v0 ad=0.44p pd=2.88u as=0.44p ps=2.88u w=1u l=0.7u
.ends

.subckt XM4_cmp G D w_n319_n356# S
MX0 D G S w_n319_n356# pfet_06v0 ad=0.44p pd=2.88u as=0.44p ps=2.88u w=1u l=0.55u
.ends

.subckt XMl4_cmp G D w_n319_n356# S
MX0 D G S w_n319_n356# pfet_06v0 ad=0.44p pd=2.88u as=0.44p ps=2.88u w=1u l=0.55u
.ends

.subckt XMinn_cmp G D a_n302_n324# a_n302_252# S
MX0 D G S a_n302_n324# nfet_06v0 ad=0.44p pd=2.88u as=0.44p ps=2.88u w=1u l=0.7u
.ends

.subckt XMl3_cmp G D w_n319_n356# S
MX0 D G S w_n319_n356# pfet_06v0 ad=0.44p pd=2.88u as=0.44p ps=2.88u w=1u l=0.55u
.ends

.subckt XM3_cmp G D w_n319_n356# S
MX0 D G S w_n319_n356# pfet_06v0 ad=0.44p pd=2.88u as=0.44p ps=2.88u w=1u l=0.55u
.ends

.subckt XMl2_cmp G D a_n302_n324# S
MX0 D G S a_n302_n324# nfet_06v0 ad=0.44p pd=2.88u as=0.44p ps=2.88u w=1u l=0.7u
.ends

.subckt XM2_cmp G D w_n319_n356# S
MX0 D G S w_n319_n356# pfet_06v0 ad=0.44p pd=2.88u as=0.44p ps=2.88u w=1u l=0.55u
.ends

.subckt XM1_cmp G D w_n319_n356# S
MX0 D G S w_n319_n356# pfet_06v0 ad=0.44p pd=2.88u as=0.44p ps=2.88u w=1u l=0.55u
.ends

.subckt XMl1_cmp G D a_n302_n324# S
MX0 D G S a_n302_n324# nfet_06v0 ad=0.44p pd=2.88u as=0.44p ps=2.88u w=1u l=0.7u
.ends

.subckt XM4_trims_left a_436_n100# a_192_n100# a_n1188_n324# a_n296_n100# a_784_n183#
+ a_n192_n183# a_n436_n183# a_540_n183# a_n52_n100# a_924_n100# a_680_n100# a_n1012_n100#
+ a_n784_n100# a_n924_n183# a_n680_n183# a_n540_n100# a_296_n183# a_52_n183#
MX0 a_436_n100# a_296_n183# a_192_n100# a_n1188_n324# nfet_06v0 ad=0.26p pd=1.52u as=0.26p ps=1.52u w=1u l=0.7u
MX1 a_n784_n100# a_n924_n183# a_n1012_n100# a_n1188_n324# nfet_06v0 ad=0.26p pd=1.52u as=0.44p ps=2.88u w=1u l=0.7u
MX2 a_192_n100# a_52_n183# a_n52_n100# a_n1188_n324# nfet_06v0 ad=0.26p pd=1.52u as=0.26p ps=1.52u w=1u l=0.7u
MX3 a_680_n100# a_540_n183# a_436_n100# a_n1188_n324# nfet_06v0 ad=0.26p pd=1.52u as=0.26p ps=1.52u w=1u l=0.7u
MX4 a_924_n100# a_784_n183# a_680_n100# a_n1188_n324# nfet_06v0 ad=0.44p pd=2.88u as=0.26p ps=1.52u w=1u l=0.7u
MX5 a_n52_n100# a_n192_n183# a_n296_n100# a_n1188_n324# nfet_06v0 ad=0.26p pd=1.52u as=0.26p ps=1.52u w=1u l=0.7u
MX6 a_n296_n100# a_n436_n183# a_n540_n100# a_n1188_n324# nfet_06v0 ad=0.26p pd=1.52u as=0.26p ps=1.52u w=1u l=0.7u
MX7 a_n540_n100# a_n680_n183# a_n784_n100# a_n1188_n324# nfet_06v0 ad=0.26p pd=1.52u as=0.26p ps=1.52u w=1u l=0.7u
.ends

.subckt XM0_trims_left G D a_n5334_252# a_n5334_n324# S
MX0 S G D a_n5334_n324# nfet_06v0 ad=0.44p pd=2.88u as=0.44p ps=2.88u w=1u l=0.7u
.ends

.subckt XM1_trims_left G D a_n5302_n324# S a_n5302_252#
MX0 D G S a_n5302_n324# nfet_06v0 ad=0.44p pd=2.88u as=0.44p ps=2.88u w=1u l=0.7u
.ends

.subckt XM2_trims_left a_n4456_n324# a_n3948_n183# a_n3808_n100# a_n4280_n100# a_n4052_n100#
+ a_n4192_n183# a_n4456_252#
MX0 a_n4052_n100# a_n4192_n183# a_n4280_n100# a_n4456_n324# nfet_06v0 ad=0.26p pd=1.52u as=0.44p ps=2.88u w=1u l=0.7u
MX1 a_n3808_n100# a_n3948_n183# a_n4052_n100# a_n4456_n324# nfet_06v0 ad=0.44p pd=2.88u as=0.26p ps=1.52u w=1u l=0.7u
.ends

.subckt XM3_trims_left a_n2052_n100# a_n2668_n324# a_n1808_n100# a_n1948_n183# a_n1564_n100#
+ a_n2524_n100# a_n1704_n183# a_n2296_n100# a_n2192_n183# a_n2436_n183#
MX0 a_n2052_n100# a_n2192_n183# a_n2296_n100# a_n2668_n324# nfet_06v0 ad=0.26p pd=1.52u as=0.26p ps=1.52u w=1u l=0.7u
MX1 a_n1564_n100# a_n1704_n183# a_n1808_n100# a_n2668_n324# nfet_06v0 ad=0.44p pd=2.88u as=0.26p ps=1.52u w=1u l=0.7u
MX2 a_n1808_n100# a_n1948_n183# a_n2052_n100# a_n2668_n324# nfet_06v0 ad=0.26p pd=1.52u as=0.26p ps=1.52u w=1u l=0.7u
MX3 a_n2296_n100# a_n2436_n183# a_n2524_n100# a_n2668_n324# nfet_06v0 ad=0.26p pd=1.52u as=0.44p ps=2.88u w=1u l=0.7u
.ends

.subckt trim_switch_left d_0 d_4 d_1 d_2 d_3 n1 n4 n0 n2 n3 VSUBS
XXM4_trims_left_0 n4 VSUBS VSUBS VSUBS d_4 d_4 d_4 d_4 n4 n4 VSUBS n4 VSUBS d_4 d_4
+ n4 d_4 d_4 XM4_trims_left
XXM0_trims_left_0 d_0 n0 VSUBS VSUBS VSUBS XM0_trims_left
XXM1_trims_left_0 d_1 n1 VSUBS VSUBS VSUBS XM1_trims_left
XXM2_trims_left_0 VSUBS d_2 n2 n2 VSUBS d_2 VSUBS XM2_trims_left
XXM3_trims_left_0 n3 VSUBS VSUBS d_3 n3 n3 d_3 VSUBS d_3 d_3 XM3_trims_left
.ends

.subckt trim_left d_0 d_4 d_1 d_2 d_3 drain n1 n4 n0 n2 n3 vss
Xtrim_switch_left_0 d_0 d_4 d_1 d_2 d_3 n1 n4 n0 n2 n3 vss trim_switch_left
.ends

.subckt comparator trim1 trim0 trim2 trim3 trim4 trimb4 trimb1 trimb0 trimb2 trimb3
+ vp vn outp outn in ip clkc diff vdd vss
XXMdiff_cmp_0 vss vss clkc diff vss clkc XMdiff_cmp
Xtrim_right_0 trimb0 trimb4 trimb1 trimb2 trimb3 ip trim_right_0/n1 trim_right_0/n4
+ trim_right_0/n0 trim_right_0/n2 trim_right_0/n3 vss trim_right
XXMinp_cmp_0 vp ip vss vss diff XMinp_cmp
XXM4_cmp_0 clkc ip vdd vdd XM4_cmp
XXMl4_cmp_0 outn outp vdd vdd XMl4_cmp
XXMinn_cmp_0 vn in vss vss diff XMinn_cmp
XXMl3_cmp_0 outp outn vdd vdd XMl3_cmp
XXM3_cmp_0 clkc outp vdd vdd XM3_cmp
XXMl2_cmp_0 outn outp vss ip XMl2_cmp
XXM2_cmp_0 clkc outn vdd vdd XM2_cmp
XXM1_cmp_0 clkc in vdd vdd XM1_cmp
XXMl1_cmp_0 outp outn vss in XMl1_cmp
Xtrim_left_0 trim0 trim4 trim1 trim2 trim3 in trim_left_0/n1 trim_left_0/n4 trim_left_0/n0
+ trim_left_0/n2 trim_left_0/n3 vss trim_left
.ends

.subckt cap_mim_2p0fF_RCWXT2$1 m4_n3120_n3000# m4_n3240_n3120#
X0 m4_n3120_n3000# m4_n3240_n3120# cap_mim_2f0fF c_width=30u c_length=30u
.ends

.subckt mim_cap_30_30_flip cap_mim_2p0fF_RCWXT2_0/m4_n3240_n3120# cap_mim_2p0fF_RCWXT2_0/m4_n3120_n3000#
Xcap_mim_2p0fF_RCWXT2_0 cap_mim_2p0fF_RCWXT2_0/m4_n3120_n3000# cap_mim_2p0fF_RCWXT2_0/m4_n3240_n3120#
+ cap_mim_2p0fF_RCWXT2$1
.ends

.subckt cap_mim_2p0fF_RCWXT2 m4_n3120_n3000# m4_n3240_n3120#
X0 m4_n3120_n3000# m4_n3240_n3120# cap_mim_2f0fF c_width=30u c_length=30u
.ends

.subckt mim_cap_30_30 cap_mim_2p0fF_RCWXT2_0/m4_n3240_n3120# cap_mim_2p0fF_RCWXT2_0/m4_n3120_n3000#
Xcap_mim_2p0fF_RCWXT2_0 cap_mim_2p0fF_RCWXT2_0/m4_n3120_n3000# cap_mim_2p0fF_RCWXT2_0/m4_n3240_n3120#
+ cap_mim_2p0fF_RCWXT2
.ends

.subckt mim_cap1 vss vdd
Xmim_cap_30_30_flip_233 vss vdd mim_cap_30_30_flip
Xmim_cap_30_30_flip_222 vss vdd mim_cap_30_30_flip
Xmim_cap_30_30_flip_200 vss vdd mim_cap_30_30_flip
Xmim_cap_30_30_flip_211 vss vdd mim_cap_30_30_flip
Xmim_cap_30_30_68 vss vdd mim_cap_30_30
Xmim_cap_30_30_57 vss vdd mim_cap_30_30
Xmim_cap_30_30_79 vss vdd mim_cap_30_30
Xmim_cap_30_30_13 vss vdd mim_cap_30_30
Xmim_cap_30_30_24 vss vdd mim_cap_30_30
Xmim_cap_30_30_46 vss vdd mim_cap_30_30
Xmim_cap_30_30_35 vss vdd mim_cap_30_30
Xmim_cap_30_30_213 vss vdd mim_cap_30_30
Xmim_cap_30_30_224 vss vdd mim_cap_30_30
Xmim_cap_30_30_202 vss vdd mim_cap_30_30
Xmim_cap_30_30_235 vss vdd mim_cap_30_30
Xmim_cap_30_30_flip_212 vss vdd mim_cap_30_30_flip
Xmim_cap_30_30_flip_234 vss vdd mim_cap_30_30_flip
Xmim_cap_30_30_flip_223 vss vdd mim_cap_30_30_flip
Xmim_cap_30_30_flip_201 vss vdd mim_cap_30_30_flip
Xmim_cap_30_30_58 vss vdd mim_cap_30_30
Xmim_cap_30_30_69 vss vdd mim_cap_30_30
Xmim_cap_30_30_14 vss vdd mim_cap_30_30
Xmim_cap_30_30_25 vss vdd mim_cap_30_30
Xmim_cap_30_30_47 vss vdd mim_cap_30_30
Xmim_cap_30_30_36 vss vdd mim_cap_30_30
Xmim_cap_30_30_214 vss vdd mim_cap_30_30
Xmim_cap_30_30_225 vss vdd mim_cap_30_30
Xmim_cap_30_30_203 vss vdd mim_cap_30_30
Xmim_cap_30_30_236 vss vdd mim_cap_30_30
Xmim_cap_30_30_flip_224 vss vdd mim_cap_30_30_flip
Xmim_cap_30_30_flip_213 vss vdd mim_cap_30_30_flip
Xmim_cap_30_30_flip_235 vss vdd mim_cap_30_30_flip
Xmim_cap_30_30_flip_202 vss vdd mim_cap_30_30_flip
Xmim_cap_30_30_59 vss vdd mim_cap_30_30
Xmim_cap_30_30_15 vss vdd mim_cap_30_30
Xmim_cap_30_30_48 vss vdd mim_cap_30_30
Xmim_cap_30_30_26 vss vdd mim_cap_30_30
Xmim_cap_30_30_37 vss vdd mim_cap_30_30
Xmim_cap_30_30_226 vss vdd mim_cap_30_30
Xmim_cap_30_30_204 vss vdd mim_cap_30_30
Xmim_cap_30_30_237 vss vdd mim_cap_30_30
Xmim_cap_30_30_215 vss vdd mim_cap_30_30
Xmim_cap_30_30_flip_225 vss vdd mim_cap_30_30_flip
Xmim_cap_30_30_flip_214 vss vdd mim_cap_30_30_flip
Xmim_cap_30_30_flip_236 vss vdd mim_cap_30_30_flip
Xmim_cap_30_30_flip_203 vss vdd mim_cap_30_30_flip
Xmim_cap_30_30_16 vss vdd mim_cap_30_30
Xmim_cap_30_30_49 vss vdd mim_cap_30_30
Xmim_cap_30_30_38 vss vdd mim_cap_30_30
Xmim_cap_30_30_27 vss vdd mim_cap_30_30
Xmim_cap_30_30_227 vss vdd mim_cap_30_30
Xmim_cap_30_30_238 vss vdd mim_cap_30_30
Xmim_cap_30_30_205 vss vdd mim_cap_30_30
Xmim_cap_30_30_216 vss vdd mim_cap_30_30
Xmim_cap_30_30_flip_226 vss vdd mim_cap_30_30_flip
Xmim_cap_30_30_flip_215 vss vdd mim_cap_30_30_flip
Xmim_cap_30_30_flip_237 vss vdd mim_cap_30_30_flip
Xmim_cap_30_30_flip_204 vss vdd mim_cap_30_30_flip
Xmim_cap_30_30_17 vss vdd mim_cap_30_30
Xmim_cap_30_30_28 vss vdd mim_cap_30_30
Xmim_cap_30_30_39 vss vdd mim_cap_30_30
Xmim_cap_30_30_228 vss vdd mim_cap_30_30
Xmim_cap_30_30_217 vss vdd mim_cap_30_30
Xmim_cap_30_30_239 vss vdd mim_cap_30_30
Xmim_cap_30_30_206 vss vdd mim_cap_30_30
Xmim_cap_30_30_flip_227 vss vdd mim_cap_30_30_flip
Xmim_cap_30_30_flip_216 vss vdd mim_cap_30_30_flip
Xmim_cap_30_30_flip_238 vss vdd mim_cap_30_30_flip
Xmim_cap_30_30_flip_205 vss vdd mim_cap_30_30_flip
Xmim_cap_30_30_18 vss vdd mim_cap_30_30
Xmim_cap_30_30_29 vss vdd mim_cap_30_30
Xmim_cap_30_30_229 vss vdd mim_cap_30_30
Xmim_cap_30_30_218 vss vdd mim_cap_30_30
Xmim_cap_30_30_207 vss vdd mim_cap_30_30
Xmim_cap_30_30_flip_228 vss vdd mim_cap_30_30_flip
Xmim_cap_30_30_flip_217 vss vdd mim_cap_30_30_flip
Xmim_cap_30_30_flip_206 vss vdd mim_cap_30_30_flip
Xmim_cap_30_30_flip_239 vss vdd mim_cap_30_30_flip
Xmim_cap_30_30_19 vss vdd mim_cap_30_30
Xmim_cap_30_30_219 vss vdd mim_cap_30_30
Xmim_cap_30_30_208 vss vdd mim_cap_30_30
Xmim_cap_30_30_flip_229 vss vdd mim_cap_30_30_flip
Xmim_cap_30_30_flip_218 vss vdd mim_cap_30_30_flip
Xmim_cap_30_30_flip_207 vss vdd mim_cap_30_30_flip
Xmim_cap_30_30_209 vss vdd mim_cap_30_30
Xmim_cap_30_30_flip_219 vss vdd mim_cap_30_30_flip
Xmim_cap_30_30_flip_208 vss vdd mim_cap_30_30_flip
Xmim_cap_30_30_190 vss vdd mim_cap_30_30
Xmim_cap_30_30_flip_209 vss vdd mim_cap_30_30_flip
Xmim_cap_30_30_flip_90 vss vdd mim_cap_30_30_flip
Xmim_cap_30_30_180 vss vdd mim_cap_30_30
Xmim_cap_30_30_191 vss vdd mim_cap_30_30
Xmim_cap_30_30_flip_80 vss vdd mim_cap_30_30_flip
Xmim_cap_30_30_flip_91 vss vdd mim_cap_30_30_flip
Xmim_cap_30_30_flip_190 vss vdd mim_cap_30_30_flip
Xmim_cap_30_30_170 vss vdd mim_cap_30_30
Xmim_cap_30_30_181 vss vdd mim_cap_30_30
Xmim_cap_30_30_192 vss vdd mim_cap_30_30
Xmim_cap_30_30_flip_81 vss vdd mim_cap_30_30_flip
Xmim_cap_30_30_flip_70 vss vdd mim_cap_30_30_flip
Xmim_cap_30_30_flip_92 vss vdd mim_cap_30_30_flip
Xmim_cap_30_30_flip_0 vss vdd mim_cap_30_30_flip
Xmim_cap_30_30_flip_191 vss vdd mim_cap_30_30_flip
Xmim_cap_30_30_flip_180 vss vdd mim_cap_30_30_flip
Xmim_cap_30_30_0 vss vdd mim_cap_30_30
Xmim_cap_30_30_160 vss vdd mim_cap_30_30
Xmim_cap_30_30_193 vss vdd mim_cap_30_30
Xmim_cap_30_30_182 vss vdd mim_cap_30_30
Xmim_cap_30_30_171 vss vdd mim_cap_30_30
Xmim_cap_30_30_flip_60 vss vdd mim_cap_30_30_flip
Xmim_cap_30_30_flip_82 vss vdd mim_cap_30_30_flip
Xmim_cap_30_30_flip_71 vss vdd mim_cap_30_30_flip
Xmim_cap_30_30_flip_93 vss vdd mim_cap_30_30_flip
Xmim_cap_30_30_flip_1 vss vdd mim_cap_30_30_flip
Xmim_cap_30_30_flip_170 vss vdd mim_cap_30_30_flip
Xmim_cap_30_30_flip_192 vss vdd mim_cap_30_30_flip
Xmim_cap_30_30_flip_181 vss vdd mim_cap_30_30_flip
Xmim_cap_30_30_1 vss vdd mim_cap_30_30
Xmim_cap_30_30_183 vss vdd mim_cap_30_30
Xmim_cap_30_30_172 vss vdd mim_cap_30_30
Xmim_cap_30_30_150 vss vdd mim_cap_30_30
Xmim_cap_30_30_194 vss vdd mim_cap_30_30
Xmim_cap_30_30_161 vss vdd mim_cap_30_30
Xmim_cap_30_30_flip_83 vss vdd mim_cap_30_30_flip
Xmim_cap_30_30_flip_72 vss vdd mim_cap_30_30_flip
Xmim_cap_30_30_flip_94 vss vdd mim_cap_30_30_flip
Xmim_cap_30_30_flip_50 vss vdd mim_cap_30_30_flip
Xmim_cap_30_30_flip_61 vss vdd mim_cap_30_30_flip
Xmim_cap_30_30_flip_2 vss vdd mim_cap_30_30_flip
Xmim_cap_30_30_flip_160 vss vdd mim_cap_30_30_flip
Xmim_cap_30_30_flip_193 vss vdd mim_cap_30_30_flip
Xmim_cap_30_30_flip_182 vss vdd mim_cap_30_30_flip
Xmim_cap_30_30_flip_171 vss vdd mim_cap_30_30_flip
Xmim_cap_30_30_2 vss vdd mim_cap_30_30
Xmim_cap_30_30_173 vss vdd mim_cap_30_30
Xmim_cap_30_30_162 vss vdd mim_cap_30_30
Xmim_cap_30_30_184 vss vdd mim_cap_30_30
Xmim_cap_30_30_195 vss vdd mim_cap_30_30
Xmim_cap_30_30_140 vss vdd mim_cap_30_30
Xmim_cap_30_30_151 vss vdd mim_cap_30_30
Xmim_cap_30_30_flip_73 vss vdd mim_cap_30_30_flip
Xmim_cap_30_30_flip_84 vss vdd mim_cap_30_30_flip
Xmim_cap_30_30_flip_95 vss vdd mim_cap_30_30_flip
Xmim_cap_30_30_flip_51 vss vdd mim_cap_30_30_flip
Xmim_cap_30_30_flip_40 vss vdd mim_cap_30_30_flip
Xmim_cap_30_30_flip_62 vss vdd mim_cap_30_30_flip
Xmim_cap_30_30_flip_3 vss vdd mim_cap_30_30_flip
Xmim_cap_30_30_flip_161 vss vdd mim_cap_30_30_flip
Xmim_cap_30_30_flip_172 vss vdd mim_cap_30_30_flip
Xmim_cap_30_30_flip_194 vss vdd mim_cap_30_30_flip
Xmim_cap_30_30_flip_183 vss vdd mim_cap_30_30_flip
Xmim_cap_30_30_flip_150 vss vdd mim_cap_30_30_flip
Xmim_cap_30_30_3 vss vdd mim_cap_30_30
Xmim_cap_30_30_174 vss vdd mim_cap_30_30
Xmim_cap_30_30_152 vss vdd mim_cap_30_30
Xmim_cap_30_30_141 vss vdd mim_cap_30_30
Xmim_cap_30_30_196 vss vdd mim_cap_30_30
Xmim_cap_30_30_130 vss vdd mim_cap_30_30
Xmim_cap_30_30_185 vss vdd mim_cap_30_30
Xmim_cap_30_30_163 vss vdd mim_cap_30_30
Xmim_cap_30_30_flip_30 vss vdd mim_cap_30_30_flip
Xmim_cap_30_30_flip_74 vss vdd mim_cap_30_30_flip
Xmim_cap_30_30_flip_85 vss vdd mim_cap_30_30_flip
Xmim_cap_30_30_flip_52 vss vdd mim_cap_30_30_flip
Xmim_cap_30_30_flip_96 vss vdd mim_cap_30_30_flip
Xmim_cap_30_30_flip_41 vss vdd mim_cap_30_30_flip
Xmim_cap_30_30_flip_63 vss vdd mim_cap_30_30_flip
Xmim_cap_30_30_flip_4 vss vdd mim_cap_30_30_flip
Xmim_cap_30_30_flip_151 vss vdd mim_cap_30_30_flip
Xmim_cap_30_30_flip_162 vss vdd mim_cap_30_30_flip
Xmim_cap_30_30_flip_140 vss vdd mim_cap_30_30_flip
Xmim_cap_30_30_flip_173 vss vdd mim_cap_30_30_flip
Xmim_cap_30_30_flip_184 vss vdd mim_cap_30_30_flip
Xmim_cap_30_30_flip_195 vss vdd mim_cap_30_30_flip
Xmim_cap_30_30_4 vss vdd mim_cap_30_30
Xmim_cap_30_30_131 vss vdd mim_cap_30_30
Xmim_cap_30_30_120 vss vdd mim_cap_30_30
Xmim_cap_30_30_153 vss vdd mim_cap_30_30
Xmim_cap_30_30_186 vss vdd mim_cap_30_30
Xmim_cap_30_30_142 vss vdd mim_cap_30_30
Xmim_cap_30_30_197 vss vdd mim_cap_30_30
Xmim_cap_30_30_164 vss vdd mim_cap_30_30
Xmim_cap_30_30_175 vss vdd mim_cap_30_30
Xmim_cap_30_30_flip_31 vss vdd mim_cap_30_30_flip
Xmim_cap_30_30_flip_75 vss vdd mim_cap_30_30_flip
Xmim_cap_30_30_flip_20 vss vdd mim_cap_30_30_flip
Xmim_cap_30_30_flip_64 vss vdd mim_cap_30_30_flip
Xmim_cap_30_30_flip_86 vss vdd mim_cap_30_30_flip
Xmim_cap_30_30_flip_42 vss vdd mim_cap_30_30_flip
Xmim_cap_30_30_flip_53 vss vdd mim_cap_30_30_flip
Xmim_cap_30_30_flip_97 vss vdd mim_cap_30_30_flip
Xmim_cap_30_30_flip_5 vss vdd mim_cap_30_30_flip
Xmim_cap_30_30_flip_152 vss vdd mim_cap_30_30_flip
Xmim_cap_30_30_flip_163 vss vdd mim_cap_30_30_flip
Xmim_cap_30_30_flip_141 vss vdd mim_cap_30_30_flip
Xmim_cap_30_30_flip_174 vss vdd mim_cap_30_30_flip
Xmim_cap_30_30_flip_130 vss vdd mim_cap_30_30_flip
Xmim_cap_30_30_flip_196 vss vdd mim_cap_30_30_flip
Xmim_cap_30_30_flip_185 vss vdd mim_cap_30_30_flip
Xmim_cap_30_30_5 vss vdd mim_cap_30_30
Xmim_cap_30_30_154 vss vdd mim_cap_30_30
Xmim_cap_30_30_176 vss vdd mim_cap_30_30
Xmim_cap_30_30_165 vss vdd mim_cap_30_30
Xmim_cap_30_30_110 vss vdd mim_cap_30_30
Xmim_cap_30_30_132 vss vdd mim_cap_30_30
Xmim_cap_30_30_121 vss vdd mim_cap_30_30
Xmim_cap_30_30_143 vss vdd mim_cap_30_30
Xmim_cap_30_30_198 vss vdd mim_cap_30_30
Xmim_cap_30_30_187 vss vdd mim_cap_30_30
Xmim_cap_30_30_flip_76 vss vdd mim_cap_30_30_flip
Xmim_cap_30_30_flip_21 vss vdd mim_cap_30_30_flip
Xmim_cap_30_30_flip_65 vss vdd mim_cap_30_30_flip
Xmim_cap_30_30_flip_10 vss vdd mim_cap_30_30_flip
Xmim_cap_30_30_flip_32 vss vdd mim_cap_30_30_flip
Xmim_cap_30_30_flip_43 vss vdd mim_cap_30_30_flip
Xmim_cap_30_30_flip_54 vss vdd mim_cap_30_30_flip
Xmim_cap_30_30_flip_87 vss vdd mim_cap_30_30_flip
Xmim_cap_30_30_flip_98 vss vdd mim_cap_30_30_flip
Xmim_cap_30_30_flip_6 vss vdd mim_cap_30_30_flip
Xmim_cap_30_30_flip_153 vss vdd mim_cap_30_30_flip
Xmim_cap_30_30_flip_164 vss vdd mim_cap_30_30_flip
Xmim_cap_30_30_flip_175 vss vdd mim_cap_30_30_flip