* NGSPICE file created from saradc.ext - technology: gf180mcuD

.subckt XM2_x4_latch G D w_n319_n356# S VSUBS
X0 D G S w_n319_n356# pfet_06v0 ad=0.44p pd=2.88u as=0.44p ps=2.88u w=1u l=0.55u
C0 w_n319_n356# G 0.186402f
C1 D S 0.045397f
C2 G S 0.002389f
C3 D G 0.002389f
C4 w_n319_n356# S 0.019807f
C5 D w_n319_n356# 0.019528f
C6 D VSUBS 0.0454f
C7 S VSUBS 0.0454f
C8 G VSUBS 0.124686f
C9 w_n319_n356# VSUBS 1.48703f
.ends

.subckt XM1_x4_latch G D a_n302_n324# S
X0 D G S a_n302_n324# nfet_06v0 ad=0.44p pd=2.88u as=0.44p ps=2.88u w=1u l=0.7u
C0 G S 0.002868f
C1 S D 0.038197f
C2 G D 0.002868f
C3 D a_n302_n324# 0.065984f
C4 S a_n302_n324# 0.066063f
C5 G a_n302_n324# 0.365275f
.ends

.subckt x4_latch inv_out inv_in vdd vss
XXM2_x4_latch_0 inv_in inv_out vdd vdd vss XM2_x4_latch
XXM1_x4_latch_0 inv_in inv_out vss vss XM1_x4_latch
C0 inv_out vdd 0.090362f
C1 vss inv_out 0.041091f
C2 vss vdd 0.042913f
C3 inv_in inv_out 0.075645f
C4 inv_in vdd 0.070585f
C5 inv_in vss 0.036044f
C6 vdd 0 1.6624f
C7 inv_out 0 0.399533f
C8 vss 0 0.289424f
C9 inv_in 0 0.606521f
.ends

.subckt XM2_x3_latch G D w_n319_n356# S VSUBS
X0 S G D w_n319_n356# pfet_06v0 ad=0.44p pd=2.88u as=0.44p ps=2.88u w=1u l=0.55u
C0 G S 0.002389f
C1 S w_n319_n356# 0.019807f
C2 D S 0.045397f
C3 G w_n319_n356# 0.186402f
C4 D G 0.002389f
C5 D w_n319_n356# 0.019528f
C6 S VSUBS 0.0454f
C7 D VSUBS 0.0454f
C8 G VSUBS 0.124686f
C9 w_n319_n356# VSUBS 1.48703f
.ends

.subckt XM1_x3_latch G D a_n319_n324# S
X0 S G D a_n319_n324# nfet_06v0 ad=0.44p pd=2.88u as=0.44p ps=2.88u w=1u l=0.7u
C0 D G 0.002868f
C1 S D 0.038197f
C2 S G 0.002868f
C3 S a_n319_n324# 0.066063f
C4 D a_n319_n324# 0.065984f
C5 G a_n319_n324# 0.365275f
.ends

.subckt x3_latch inv_out vdd inv_in vss
XXM2_x3_latch_0 inv_in inv_out vdd vdd vss XM2_x3_latch
XXM1_x3_latch_0 inv_in inv_out vss vss XM1_x3_latch
C0 vss vdd 0.041623f
C1 inv_out vdd 0.090362f
C2 inv_in vss 0.036044f
C3 inv_in inv_out 0.075645f
C4 vss inv_out 0.041091f
C5 inv_in vdd 0.070585f
C6 vdd 0 1.658401f
C7 vss 0 0.284019f
C8 inv_out 0 0.399533f
C9 inv_in 0 0.606521f
.ends

.subckt XM4_latch G D a_n319_n324# S a_n319_252#
X0 D G S a_n319_n324# nfet_06v0 ad=0.44p pd=2.88u as=0.44p ps=2.88u w=1u l=0.7u
C0 G D 0.002868f
C1 S G 0.002868f
C2 S D 0.038197f
C3 D a_n319_n324# 0.065984f
C4 S a_n319_n324# 0.065984f
C5 G a_n319_n324# 0.365186f
.ends

.subckt XM2_x2_latch G D w_n319_n356# S VSUBS
X0 D G S w_n319_n356# pfet_06v0 ad=0.44p pd=2.88u as=0.44p ps=2.88u w=1u l=0.55u
C0 G D 0.002389f
C1 S G 0.002389f
C2 w_n319_n356# D 0.019528f
C3 w_n319_n356# S 0.019528f
C4 w_n319_n356# G 0.186194f
C5 S D 0.045397f
C6 D VSUBS 0.0454f
C7 S VSUBS 0.0454f
C8 G VSUBS 0.124686f
C9 w_n319_n356# VSUBS 1.48655f
.ends

.subckt XM1_x2_latch G a_n320_n324# D a_n318_252# S
X0 D G S a_n320_n324# nfet_06v0 ad=0.44p pd=2.88u as=0.44p ps=2.88u w=1u l=0.7u
C0 G D 0.002868f
C1 S G 0.002868f
C2 S D 0.038197f
C3 D a_n320_n324# 0.065984f
C4 S a_n320_n324# 0.065984f
C5 G a_n320_n324# 0.365186f
.ends

.subckt x2_latch inv_out vdd inv_in XM1_x2_latch_0/a_n318_252# vss
XXM2_x2_latch_0 inv_in inv_out vdd vdd vss XM2_x2_latch
XXM1_x2_latch_0 inv_in vss inv_out XM1_x2_latch_0/a_n318_252# vss XM1_x2_latch
C0 vdd inv_in 0.070339f
C1 inv_out vdd 0.089967f
C2 vdd vss 0.040272f
C3 inv_out inv_in 0.075645f
C4 vss inv_in 0.034813f
C5 inv_out vss 0.038009f
C6 vdd 0 1.678276f
C7 inv_out 0 0.40245f
C8 vss 0 0.292283f
C9 inv_in 0 0.607553f
.ends

.subckt XM3_latch G D a_n319_n324# S a_n319_252#
X0 D G S a_n319_n324# nfet_06v0 ad=0.44p pd=2.88u as=0.44p ps=2.88u w=1u l=0.7u
C0 G S 0.002868f
C1 S D 0.038197f
C2 G D 0.002868f
C3 D a_n319_n324# 0.065984f
C4 S a_n319_n324# 0.065984f
C5 G a_n319_n324# 0.365186f
.ends

.subckt XM2_x1_latch G D w_n319_n356# S VSUBS
X0 D G S w_n319_n356# pfet_06v0 ad=0.44p pd=2.88u as=0.44p ps=2.88u w=1u l=0.55u
C0 G S 0.002389f
C1 S D 0.045397f
C2 G D 0.002389f
C3 w_n319_n356# S 0.019528f
C4 G w_n319_n356# 0.186194f
C5 w_n319_n356# D 0.019528f
C6 D VSUBS 0.0454f
C7 S VSUBS 0.0454f
C8 G VSUBS 0.124686f
C9 w_n319_n356# VSUBS 1.48655f
.ends

.subckt XM1_x1_latch G D a_n318_n324# S
X0 D G S a_n318_n324# nfet_06v0 ad=0.44p pd=2.88u as=0.44p ps=2.88u w=1u l=0.7u
C0 S D 0.038197f
C1 G D 0.002868f
C2 S G 0.002868f
C3 D a_n318_n324# 0.065984f
C4 S a_n318_n324# 0.065984f
C5 G a_n318_n324# 0.365186f
.ends

.subckt x1_latch inv_out inv_in vdd vss
XXM2_x1_latch_0 inv_in inv_out vdd vdd vss XM2_x1_latch
XXM1_x1_latch_0 inv_in inv_out vss vss XM1_x1_latch
C0 inv_out vdd 0.089967f
C1 inv_in inv_out 0.075645f
C2 vss vdd 0.042519f
C3 inv_in vss 0.034813f
C4 inv_in vdd 0.070339f
C5 inv_out vss 0.038009f
C6 vdd 0 1.676557f
C7 inv_out 0 0.40245f
C8 vss 0 0.30318f
C9 inv_in 0 0.607553f
.ends

.subckt latch Q Qn R S tutyuu1 tutyuu2 vdd vss
Xx4_latch_0 tutyuu1 S vdd vss x4_latch
Xx3_latch_0 tutyuu2 vdd R vss x3_latch
XXM4_latch_0 tutyuu2 Q vss vss vss XM4_latch
Xx2_latch_0 Qn vdd Q vss vss x2_latch
XXM3_latch_0 tutyuu1 Qn vss vss vss XM3_latch
Xx1_latch_0 Q Qn vdd vss x1_latch
C0 R tutyuu2 0.091043f
C1 Q tutyuu2 0.080738f
C2 vdd tutyuu1 0.186837f
C3 vdd Qn 0.134494f
C4 Qn tutyuu1 0.080688f
C5 vss vdd 0.035019f
C6 vss tutyuu1 0.103577f
C7 vdd S 0.069238f
C8 vss Qn 0.167238f
C9 R vdd 0.069238f
C10 tutyuu1 S 0.091043f
C11 Qn S 0.008621f
C12 vdd Q 0.457389f
C13 Q tutyuu1 0.04404f
C14 Q Qn 0.886677f
C15 vss S 0.034158f
C16 R vss 0.034158f
C17 vss Q 0.14016f
C18 vdd tutyuu2 0.186732f
C19 R Q 0.008667f
C20 Qn tutyuu2 0.043999f
C21 vss tutyuu2 0.103577f
C22 vdd 0 9.513767f
C23 Qn 0 0.887927f
C24 vss 0 1.296609f
C25 Q 0 0.846126f
C26 tutyuu2 0 0.717123f
C27 R 0 0.592286f
C28 tutyuu1 0 0.717027f
C29 S 0 0.592286f
.ends

.subckt XM1_inv2 VSUBS G D a_n319_n324# S
X0 D G S a_n319_n324# nfet_06v0 ad=0.44p pd=2.88u as=0.44p ps=2.88u w=1u l=0.7u
C0 G S 0.002868f
C1 D G 0.002868f
C2 D S 0.038197f
C3 D a_n319_n324# 0.066063f
C4 S a_n319_n324# 0.065984f
C5 G a_n319_n324# 0.365275f
.ends

.subckt XM2_inv2 VSUBS G D S
X0 D G S VSUBS pfet_06v0 ad=0.44p pd=2.88u as=0.44p ps=2.88u w=1u l=0.55u
C0 S D 0.045397f
C1 G S 0.002389f
C2 G D 0.002389f
C3 D VSUBS 0.065207f
C4 S VSUBS 0.064928f
C5 G VSUBS 0.311088f
.ends

.subckt inv2 inv_out inv_in vss
XXM1_inv2_0 XM1_inv2_0/VSUBS inv_in inv_out vss vss XM1_inv2
XXM2_inv2_0 vss inv_in inv_out vss XM2_inv2
C0 inv_in vss 0.106611f
C1 inv_out inv_in 0.075645f
C2 inv_out vss 0.138038f
C3 inv_out 0 0.395231f
C4 vss 0 1.956022f
C5 inv_in 0 0.606537f
.ends

.subckt XM1_inv1 VSUBS G D a_n302_n324# S
X0 D G S a_n302_n324# nfet_06v0 ad=0.44p pd=2.88u as=0.44p ps=2.88u w=1u l=0.7u
C0 S D 0.038197f
C1 G D 0.002868f
C2 S G 0.002868f
C3 D a_n302_n324# 0.065984f
C4 S a_n302_n324# 0.066063f
C5 G a_n302_n324# 0.365275f
.ends

.subckt XM2_inv1 VSUBS G D S
X0 D G S VSUBS pfet_06v0 ad=0.44p pd=2.88u as=0.44p ps=2.88u w=1u l=0.55u
C0 S G 0.002389f
C1 D S 0.045397f
C2 D G 0.002389f
C3 D VSUBS 0.064928f
C4 S VSUBS 0.065207f
C5 G VSUBS 0.311088f
.ends

.subckt inv1 inv_out inv_in vss
XXM1_inv1_0 XM1_inv1_0/VSUBS inv_in inv_out vss vss XM1_inv1
XXM2_inv1_0 vss inv_in inv_out vss XM2_inv1
C0 vss inv_out 0.131465f
C1 inv_in inv_out 0.075645f
C2 vss inv_in 0.106647f
C3 inv_out 0 0.399522f
C4 vss 0 1.951823f
C5 inv_in 0 0.606504f
.ends

.subckt buffer buf_in buf_out inv2_0/inv_in vss
Xinv2_0 buf_out inv2_0/inv_in vss inv2
Xinv1_0 inv2_0/inv_in buf_in vss inv1
C0 vss inv2_0/inv_in 0.215763f
C1 vss buf_out 0.067727f
C2 vss buf_in 0.095444f
C3 inv2_0/inv_in buf_out 0.153015f
C4 inv2_0/inv_in buf_in 0.110773f
C5 buf_in 0 0.674967f
C6 buf_out 0 0.447624f
C7 vss 0 3.711325f
C8 inv2_0/inv_in 0 0.832311f
.ends

.subckt inv_p VSS ZN I VDD VPW VNW VSUBS
X0 VDD I ZN VNW pfet_06v0 ad=1.2078p pd=4.42u as=0.4575p ps=1.97u w=1.22u l=0.5u
X1 ZN I VSS VSUBS nfet_06v0 ad=0.2255p pd=1.37u as=0.5084p ps=2.88u w=0.82u l=0.6u
X2 VSS I ZN VSUBS nfet_06v0 ad=0.8118p pd=3.62u as=0.2255p ps=1.37u w=0.82u l=0.6u
X3 ZN I VDD VNW pfet_06v0 ad=0.4575p pd=1.97u as=0.7564p ps=3.68u w=1.22u l=0.5u
C0 I VDD 0.074838f
C1 VSS VDD 0.029045f
C2 VDD ZN 0.271625f
C3 I VSS 0.091531f
C4 I ZN 0.58604f
C5 VSS ZN 0.180794f
C6 VNW VDD 0.082022f
C7 I VNW 0.285482f
C8 VNW VSS 0.006277f
C9 VNW ZN 0.023676f
C10 VSS VSUBS 0.296769f
C11 ZN VSUBS 0.099188f
C12 VDD VSUBS 0.238483f
C13 I VSUBS 0.610668f
C14 VNW VSUBS 1.31158f
.ends

.subckt inv_renketu_p inv_p_7/I inv_p_9/ZN inv_p_6/ZN inv_p_3/ZN inv_p_9/I inv_p_0/ZN
+ inv_p_0/I inv_p_2/I inv_p_10/I inv_p_4/I inv_p_8/ZN inv_p_2/ZN inv_p_5/ZN inv_p_6/I
+ inv_p_10/ZN inv_p_8/I inv_p_1/I inv_p_7/ZN inv_p_4/ZN inv_p_1/ZN inv_p_3/I vss inv_p_5/I
+ vdd
Xinv_p_0 vss inv_p_0/ZN inv_p_0/I vdd inv_p_0/VPW vdd vss inv_p
Xinv_p_1 vss inv_p_1/ZN inv_p_1/I vdd inv_p_1/VPW vdd vss inv_p
Xinv_p_2 vss inv_p_2/ZN inv_p_2/I vdd inv_p_2/VPW vdd vss inv_p
Xinv_p_3 vss inv_p_3/ZN inv_p_3/I vdd inv_p_3/VPW vdd vss inv_p
Xinv_p_4 vss inv_p_4/ZN inv_p_4/I vdd inv_p_4/VPW vdd vss inv_p
Xinv_p_5 vss inv_p_5/ZN inv_p_5/I vdd inv_p_5/VPW vdd vss inv_p
Xinv_p_6 vss inv_p_6/ZN inv_p_6/I vdd inv_p_6/VPW vdd vss inv_p
Xinv_p_7 vss inv_p_7/ZN inv_p_7/I vdd inv_p_7/VPW vdd vss inv_p
Xinv_p_8 vss inv_p_8/ZN inv_p_8/I vdd inv_p_8/VPW vdd vss inv_p
Xinv_p_9 vss inv_p_9/ZN inv_p_9/I vdd inv_p_9/VPW vdd vss inv_p
Xinv_p_10 vss inv_p_10/ZN inv_p_10/I vdd inv_p_10/VPW vdd vss inv_p
C0 inv_p_4/ZN inv_p_1/I 0.028928f
C1 vss inv_p_7/I 0.166388f
C2 vss inv_p_3/I 0.166388f
C3 vdd inv_p_2/I 0.035575f
C4 vss inv_p_0/I 0.170492f
C5 vdd inv_p_1/I 0.019437f
C6 inv_p_6/I inv_p_6/ZN 0.029333f
C7 vss inv_p_7/ZN 0.003326f
C8 inv_p_4/I inv_p_5/I 0.084161f
C9 vss inv_p_8/I 0.166388f
C10 vss inv_p_0/ZN 0.005399f
C11 vss inv_p_9/I 0.166388f
C12 vss inv_p_4/I 0.166388f
C13 inv_p_10/I inv_p_2/ZN 0.028928f
C14 inv_p_7/I vdd 0.019437f
C15 vdd inv_p_3/I 0.019437f
C16 vss inv_p_8/ZN 0.003326f
C17 vss inv_p_10/I 0.166388f
C18 vss inv_p_3/ZN 0.003326f
C19 inv_p_0/I vdd 0.026972f
C20 inv_p_4/ZN inv_p_4/I 0.029333f
C21 inv_p_1/I inv_p_3/I 0.084161f
C22 vss inv_p_9/ZN 0.003326f
C23 inv_p_4/I inv_p_5/ZN 0.028928f
C24 inv_p_10/ZN inv_p_2/ZN 0.080571f
C25 inv_p_7/ZN vdd 0.159176f
C26 vss inv_p_10/ZN 0.003326f
C27 vdd inv_p_8/I 0.019437f
C28 vdd inv_p_0/ZN 0.184001f
C29 inv_p_5/I inv_p_6/I 0.084161f
C30 vdd inv_p_9/I 0.019437f
C31 inv_p_4/I vdd 0.019437f
C32 inv_p_2/I inv_p_10/I 0.084161f
C33 vdd inv_p_8/ZN 0.159176f
C34 vdd inv_p_10/I 0.019437f
C35 inv_p_0/I inv_p_3/I 0.08416f
C36 vdd inv_p_3/ZN 0.159176f
C37 inv_p_4/I inv_p_1/I 0.084161f
C38 vss inv_p_6/I 0.166388f
C39 inv_p_5/I inv_p_6/ZN 0.028928f
C40 vdd inv_p_9/ZN 0.159176f
C41 inv_p_7/I inv_p_7/ZN 0.029333f
C42 inv_p_1/I inv_p_3/ZN 0.002086f
C43 vss inv_p_1/ZN 0.003326f
C44 inv_p_2/I inv_p_10/ZN 0.002086f
C45 inv_p_7/I inv_p_8/I 0.084161f
C46 inv_p_0/ZN inv_p_3/I 0.002086f
C47 vdd inv_p_10/ZN 0.159176f
C48 vss inv_p_6/ZN 0.003326f
C49 inv_p_0/I inv_p_0/ZN 0.029333f
C50 inv_p_6/I inv_p_5/ZN 0.002086f
C51 inv_p_4/ZN inv_p_1/ZN 0.080571f
C52 inv_p_7/ZN inv_p_8/I 0.002086f
C53 inv_p_7/I inv_p_8/ZN 0.028928f
C54 inv_p_3/ZN inv_p_3/I 0.029333f
C55 inv_p_6/ZN inv_p_5/ZN 0.080571f
C56 vdd inv_p_6/I 0.019437f
C57 inv_p_0/I inv_p_3/ZN 0.028928f
C58 inv_p_8/I inv_p_9/I 0.084161f
C59 inv_p_7/ZN inv_p_8/ZN 0.080571f
C60 vdd inv_p_1/ZN 0.159176f
C61 inv_p_8/I inv_p_8/ZN 0.029333f
C62 inv_p_0/ZN inv_p_3/ZN 0.080571f
C63 vdd inv_p_6/ZN 0.159176f
C64 inv_p_1/I inv_p_1/ZN 0.029333f
C65 inv_p_8/I inv_p_9/ZN 0.028928f
C66 inv_p_8/ZN inv_p_9/I 0.002086f
C67 inv_p_10/I inv_p_9/I 0.084161f
C68 inv_p_9/I inv_p_9/ZN 0.029333f
C69 vss inv_p_5/I 0.166388f
C70 inv_p_7/I inv_p_6/I 0.084161f
C71 inv_p_8/ZN inv_p_9/ZN 0.080571f
C72 inv_p_10/I inv_p_9/ZN 0.002086f
C73 inv_p_10/ZN inv_p_9/I 0.028928f
C74 inv_p_1/ZN inv_p_3/I 0.028928f
C75 vss inv_p_2/ZN 0.005014f
C76 inv_p_4/ZN inv_p_5/I 0.002086f
C77 inv_p_10/I inv_p_10/ZN 0.029333f
C78 inv_p_7/ZN inv_p_6/I 0.028928f
C79 inv_p_7/I inv_p_6/ZN 0.002086f
C80 inv_p_5/I inv_p_5/ZN 0.029333f
C81 inv_p_10/ZN inv_p_9/ZN 0.080571f
C82 vss inv_p_4/ZN 0.003326f
C83 inv_p_7/ZN inv_p_6/ZN 0.080571f
C84 vss inv_p_5/ZN 0.003326f
C85 vdd inv_p_5/I 0.019437f
C86 inv_p_4/I inv_p_1/ZN 0.002086f
C87 inv_p_2/I inv_p_2/ZN 0.029333f
C88 vdd inv_p_2/ZN 0.174722f
C89 inv_p_4/ZN inv_p_5/ZN 0.080571f
C90 vss inv_p_2/I 0.164788f
C91 inv_p_1/ZN inv_p_3/ZN 0.080571f
C92 vss vdd 0.009518f
C93 vss inv_p_1/I 0.166388f
C94 inv_p_4/ZN vdd 0.159176f
C95 vdd inv_p_5/ZN 0.159176f
C96 inv_p_10/ZN 0 0.131999f
C97 inv_p_10/I 0 0.64919f
C98 inv_p_9/ZN 0 0.131999f
C99 inv_p_9/I 0 0.64919f
C100 inv_p_8/ZN 0 0.131999f
C101 inv_p_8/I 0 0.64919f
C102 inv_p_7/ZN 0 0.131999f
C103 inv_p_7/I 0 0.64919f
C104 inv_p_6/ZN 0 0.131999f
C105 inv_p_6/I 0 0.64919f
C106 inv_p_5/ZN 0 0.131999f
C107 inv_p_5/I 0 0.64919f
C108 inv_p_4/ZN 0 0.131999f
C109 inv_p_4/I 0 0.64919f
C110 inv_p_3/ZN 0 0.131999f
C111 inv_p_3/I 0 0.64919f
C112 vss 0 3.02573f
C113 inv_p_2/ZN 0 0.206166f
C114 vdd 0 16.013325f
C115 inv_p_2/I 0 0.750024f
C116 inv_p_1/ZN 0 0.131999f
C117 inv_p_1/I 0 0.64919f
C118 inv_p_0/ZN 0 0.209411f
C119 inv_p_0/I 0 0.731246f
.ends

.subckt XM3_bs_p G D w_n319_n356# S VSUBS
X0 D G S w_n319_n356# pfet_06v0 ad=0.44p pd=2.88u as=0.44p ps=2.88u w=1u l=0.55u
C0 G S 0.002389f
C1 D S 0.045397f
C2 D G 0.002389f
C3 w_n319_n356# S 0.021189f
C4 w_n319_n356# G 0.186402f
C5 D w_n319_n356# 0.019807f
C6 D VSUBS 0.0454f
C7 S VSUBS 0.0454f
C8 G VSUBS 0.124686f
C9 w_n319_n356# VSUBS 1.47408f
.ends

.subckt XMs2_bs_p G D a_n302_n324# a_n302_252# S
X0 D G S a_n302_n324# nfet_06v0 ad=0.44p pd=2.88u as=0.44p ps=2.88u w=1u l=0.7u
C0 G S 0.002868f
C1 D S 0.038197f
C2 D G 0.002868f
C3 D a_n302_n324# 0.068446f
C4 S a_n302_n324# 0.068446f
C5 G a_n302_n324# 0.365186f
.ends

.subckt XM2_bs_inv_p G D w_n319_n356# S VSUBS
X0 D G S w_n319_n356# pfet_06v0 ad=0.44p pd=2.88u as=0.44p ps=2.88u w=1u l=0.55u
C0 G S 0.002389f
C1 D S 0.045397f
C2 D G 0.002389f
C3 w_n319_n356# S 0.019807f
C4 w_n319_n356# G 0.186609f
C5 D w_n319_n356# 0.019807f
C6 D VSUBS 0.0454f
C7 S VSUBS 0.0454f
C8 G VSUBS 0.124686f
C9 w_n319_n356# VSUBS 1.48751f
.ends

.subckt XM1_bs_inv_p G D a_n302_n324# S
X0 D G S a_n302_n324# nfet_06v0 ad=0.44p pd=2.88u as=0.44p ps=2.88u w=1u l=0.7u
C0 S D 0.038197f
C1 G D 0.002868f
C2 G S 0.002868f
C3 D a_n302_n324# 0.066063f
C4 S a_n302_n324# 0.066063f
C5 G a_n302_n324# 0.365365f
.ends

.subckt bs_inv_p inv_out vdd inv_in vss
XXM2_bs_inv_p_0 inv_in inv_out vdd vdd vss XM2_bs_inv_p
XXM1_bs_inv_p_0 inv_in inv_out vss vss XM1_bs_inv_p
C0 vss inv_in 0.037258f
C1 inv_out vdd 0.092565f
C2 inv_in vdd 0.07083f
C3 vss vdd 0.043239f
C4 inv_out inv_in 0.075645f
C5 inv_out vss 0.04895f
C6 vdd 0 1.650725f
C7 inv_out 0 0.392313f
C8 vss 0 0.277512f
C9 inv_in 0 0.605506f
.ends

.subckt XM4_bs_p G D w_n319_n356# S VSUBS
X0 D G S w_n319_n356# pfet_06v0 ad=0.44p pd=2.88u as=0.44p ps=2.88u w=1u l=0.55u
C0 w_n319_n356# G 0.186402f
C1 w_n319_n356# S 0.021189f
C2 w_n319_n356# D 0.019807f
C3 G S 0.002389f
C4 D G 0.002389f
C5 D S 0.045397f
C6 D VSUBS 0.0454f
C7 S VSUBS 0.0454f
C8 G VSUBS 0.124686f
C9 w_n319_n356# VSUBS 1.47408f
.ends

.subckt bs_cap_p I1_1_1_R0_BOT I1_1_1_R0_TOP VSUBS
X0 I1_1_1_R0_TOP I1_1_1_R0_BOT cap_mim_2f0fF c_width=12.339999u c_length=12.339999u
C0 I1_1_1_R0_BOT I1_1_1_R0_TOP 0.730455f
C1 I1_1_1_R0_TOP VSUBS 2.59113f
C2 I1_1_1_R0_BOT VSUBS 1.76085f
.ends

.subckt XMs_bs_p G D a_n302_n324# S
X0 D G S a_n302_n324# nfet_06v0 ad=0.44p pd=2.88u as=0.44p ps=2.88u w=1u l=0.7u
C0 G S 0.002868f
C1 G D 0.002868f
C2 S D 0.038197f
C3 D a_n302_n324# 0.061336f
C4 S a_n302_n324# 0.061257f
C5 G a_n302_n324# 0.361785f
.ends

.subckt XM1_bs_p G D a_n302_n324# a_n302_252# S
X0 D G S a_n302_n324# nfet_06v0 ad=0.44p pd=2.88u as=0.44p ps=2.88u w=1u l=0.7u
C0 G S 0.002868f
C1 D G 0.002868f
C2 D S 0.038197f
C3 D a_n302_n324# 0.061257f
C4 S a_n302_n324# 0.061257f
C5 G a_n302_n324# 0.361695f
.ends

.subckt XM2_bs_p G D a_n302_n324# a_n302_252# S
X0 D G S a_n302_n324# nfet_06v0 ad=0.44p pd=2.88u as=0.44p ps=2.88u w=1u l=0.7u
C0 G S 0.002868f
C1 D G 0.002868f
C2 D S 0.038197f
C3 D a_n302_n324# 0.061257f
C4 S a_n302_n324# 0.061257f
C5 G a_n302_n324# 0.361695f
.ends

.subckt XMs1_bs_p G D a_n302_n324# S
X0 D G S a_n302_n324# nfet_06v0 ad=0.44p pd=2.88u as=0.44p ps=2.88u w=1u l=0.7u
C0 G S 0.002868f
C1 G D 0.002868f
C2 S D 0.038197f
C3 D a_n302_n324# 0.068446f
C4 S a_n302_n324# 0.066063f
C5 G a_n302_n324# 0.365275f
.ends

.subckt bootstrapped_sw_p vdd en enb bs_in bs_out vg vs vbsh vbsl vss
XXM3_bs_p_0 enb vg vbsh vbsh vss XM3_bs_p
XXMs2_bs_p_0 enb vss vss vss vs XMs2_bs_p
Xbs_inv_p_0 enb vdd en vss bs_inv_p
XXM4_bs_p_0 vg vdd vbsh vbsh vss XM4_bs_p
Xbs_cap_p_0 vbsl vbsh vss bs_cap_p
Xbs_cap_p_1 vbsl vbsh vss bs_cap_p
Xbs_cap_p_2 vbsl vbsh vss bs_cap_p
Xbs_cap_p_3 vbsl vbsh vss bs_cap_p
Xbs_cap_p_4 vbsl vbsh vss bs_cap_p
XXMs_bs_p_0 vg bs_out vss bs_in XMs_bs_p
XXM1_bs_p_0 vg vbsl vss vss bs_in XM1_bs_p
XXM2_bs_p_0 enb vbsl vss vss vss XM2_bs_p
XXMs1_bs_p_0 vdd vs vss vg XMs1_bs_p
C0 vs enb 0.00173f
C1 enb bs_out 0.001285f
C2 vdd enb 0.426791f
C3 vg bs_in 0.079028f
C4 vdd bs_out 0.008497f
C5 vbsl enb 0.01529f
C6 en enb 0.018916f
C7 vbsl bs_out 0.057454f
C8 enb vbsh 0.0922f
C9 vbsl vdd 0.002507f
C10 vdd en 0.086628f
C11 vbsh bs_out 0.119559f
C12 vdd vbsh 0.205818f
C13 vs vg 0.007099f
C14 enb vg 0.583075f
C15 vbsl vbsh 0.870275f
C16 vg bs_out 0.066304f
C17 vdd vg 0.500479f
C18 vbsl vg 0.043332f
C19 en vg 0.002156f
C20 vbsl bs_in 0.256003f
C21 vg vbsh 0.283904f
C22 vbsh bs_in 0.013047f
C23 vs vss 0.042967f
C24 enb vss 1.703464f
C25 bs_out vss 0.895635f
C26 bs_in vss 0.389944f
C27 vg vss 1.576155f
C28 vbsh vss 14.292329f
C29 vbsl vss 8.158694f
C30 vdd vss 3.558326f
C31 en vss 0.896531f
.ends

.subckt dacp dac_in dum ctl7 ctl8 ctl9 ctl10 sample ctl2 ctl1 carray_p_0/n0 carray_p_0/ndum
+ ctl4 ctl6 bootstrapped_sw_p_0/enb dac_out ctl3 bootstrapped_sw_p_0/vg carray_p_0/n8
+ carray_p_0/n9 ctl5 carray_p_0/n7 vdd bootstrapped_sw_p_0/vbsh vss bootstrapped_sw_p_0/vbsl
Xinv_renketu_p_0 ctl6 carray_p_0/n8 carray_p_0/n5 carray_p_0/n1 ctl8 carray_p_0/ndum
+ dum ctl10 ctl9 ctl3 carray_p_0/n7 carray_p_0/n0 carray_p_0/n4 ctl5 carray_p_0/n9
+ ctl7 ctl2 carray_p_0/n6 carray_p_0/n3 carray_p_0/n2 ctl1 vss ctl4 vdd inv_renketu_p
Xbootstrapped_sw_p_0 vdd sample bootstrapped_sw_p_0/enb dac_in dac_out bootstrapped_sw_p_0/vg
+ bootstrapped_sw_p_0/vs bootstrapped_sw_p_0/vbsh bootstrapped_sw_p_0/vbsl vss bootstrapped_sw_p
C0 dac_out carray_p_0/n5 52.565514f
C1 carray_p_0/n0 carray_p_0/n5 0.025424f
C2 carray_p_0/n6 carray_p_0/n3 0.336612f
C3 ctl6 ctl5 0.104537f
C4 carray_p_0/n0 vdd 0.002151f
C5 carray_p_0/n8 carray_p_0/n7 50.51461f
C6 carray_p_0/n5 vdd 0.002151f
C7 carray_p_0/ndum carray_p_0/n2 0.041162f
C8 carray_p_0/n4 carray_p_0/n3 26.229403f
C9 carray_p_0/n9 carray_p_0/n3 1.911224f
C10 carray_p_0/n8 carray_p_0/n6 11.2161f
C11 dum ctl1 0.104537f
C12 carray_p_0/n1 carray_p_0/ndum 8.498201f
C13 carray_p_0/n7 carray_p_0/n2 0.485355f
C14 dac_out carray_p_0/n3 13.201303f
C15 ctl7 ctl6 0.104537f
C16 carray_p_0/n0 carray_p_0/n3 0.051666f
C17 ctl3 ctl4 0.104537f
C18 carray_p_0/n8 carray_p_0/n9 87.43918f
C19 carray_p_0/n8 carray_p_0/n4 2.84323f
C20 carray_p_0/n1 carray_p_0/n7 0.212822f
C21 ctl5 ctl4 0.104537f
C22 ctl9 ctl8 0.104537f
C23 carray_p_0/n5 carray_p_0/n3 0.346757f
C24 dac_out bootstrapped_sw_p_0/vbsh 0.280658f
C25 carray_p_0/n6 carray_p_0/n2 0.20799f
C26 vdd carray_p_0/n3 0.002151f
C27 carray_p_0/n8 dac_out 0.420151p
C28 sample carray_p_0/ndum 0.045492f
C29 carray_p_0/n8 carray_p_0/n0 0.097254f
C30 ctl10 ctl9 0.104537f
C31 carray_p_0/n6 carray_p_0/n1 0.142211f
C32 carray_p_0/n9 carray_p_0/n2 0.996681f
C33 carray_p_0/n4 carray_p_0/n2 0.213209f
C34 carray_p_0/n8 carray_p_0/n5 5.60732f
C35 carray_p_0/n7 carray_p_0/ndum 0.06073f
C36 carray_p_0/n8 vdd 0.002151f
C37 ctl2 ctl1 0.104537f
C38 carray_p_0/n1 carray_p_0/n4 0.142475f
C39 carray_p_0/n9 carray_p_0/n1 0.350042f
C40 dac_out carray_p_0/n2 6.640605f
C41 carray_p_0/n0 carray_p_0/n2 0.099314f
C42 carray_p_0/n6 carray_p_0/ndum 0.025424f
C43 dac_out carray_p_0/n1 3.367623f
C44 carray_p_0/n5 carray_p_0/n2 0.208112f
C45 carray_p_0/n0 carray_p_0/n1 8.476914f
C46 carray_p_0/n6 carray_p_0/n7 34.662605f
C47 vdd carray_p_0/n2 0.002151f
C48 carray_p_0/ndum carray_p_0/n4 0.025424f
C49 carray_p_0/n9 carray_p_0/ndum 0.127951f
C50 carray_p_0/n8 carray_p_0/n3 1.46111f
C51 carray_p_0/n1 carray_p_0/n5 0.142354f
C52 carray_p_0/n1 vdd 0.002151f
C53 carray_p_0/n7 carray_p_0/n4 1.70387f
C54 carray_p_0/n9 carray_p_0/n7 29.516087f
C55 dac_out carray_p_0/ndum 1.640173f
C56 dac_out bootstrapped_sw_p_0/vbsl 0.207261f
C57 carray_p_0/n5 carray_p_0/ndum 0.025424f
C58 carray_p_0/n3 carray_p_0/n2 23.177217f
C59 ctl2 ctl3 0.104537f
C60 dac_out carray_p_0/n7 0.210031p
C61 carray_p_0/n6 carray_p_0/n9 14.716789f
C62 carray_p_0/n6 carray_p_0/n4 0.614078f
C63 ctl7 ctl8 0.104537f
C64 carray_p_0/n0 carray_p_0/n7 0.06073f
C65 vdd carray_p_0/ndum 0.004405f
C66 sample vdd 0.00675f
C67 carray_p_0/n1 carray_p_0/n3 0.145048f
C68 carray_p_0/n5 carray_p_0/n7 3.36878f
C69 dac_out carray_p_0/n6 0.105055p
C70 carray_p_0/n9 carray_p_0/n4 3.740573f
C71 carray_p_0/n7 vdd 0.002151f
C72 carray_p_0/n0 carray_p_0/n6 0.025424f
C73 carray_p_0/n8 carray_p_0/n2 0.770227f
C74 carray_p_0/n6 carray_p_0/n5 28.925901f
C75 carray_p_0/n8 carray_p_0/n1 0.28587f
C76 dac_out carray_p_0/n9 0.846161p
C77 dac_out carray_p_0/n4 26.32268f
C78 carray_p_0/ndum carray_p_0/n3 0.025424f
C79 carray_p_0/n6 vdd 0.002151f
C80 carray_p_0/n0 carray_p_0/n4 0.040502f
C81 carray_p_0/n0 carray_p_0/n9 0.521489f
C82 carray_p_0/n5 carray_p_0/n4 27.828503f
C83 carray_p_0/n9 carray_p_0/n5 7.399346f
C84 carray_p_0/n7 carray_p_0/n3 0.891504f
C85 carray_p_0/n0 dac_out 1.750611f
C86 carray_p_0/n9 vdd 0.002151f
C87 vdd carray_p_0/n4 0.002151f
C88 carray_p_0/n8 carray_p_0/ndum 0.097254f
C89 carray_p_0/n1 carray_p_0/n2 16.941952f
C90 carray_p_0/n2 vss 30.783176f
C91 carray_p_0/n3 vss 34.265587f
C92 carray_p_0/n4 vss 39.983223f
C93 carray_p_0/n5 vss 48.00648f
C94 carray_p_0/n9 vss 14.963586f
C95 dac_out vss -0.684032p
C96 carray_p_0/n8 vss 40.580837f
C97 carray_p_0/n7 vss 56.915478f
C98 carray_p_0/n6 vss 53.64827f
C99 carray_p_0/n0 vss 17.632519f
C100 carray_p_0/n1 vss 17.795374f
C101 bootstrapped_sw_p_0/vs vss 0.053987f
C102 bootstrapped_sw_p_0/enb vss 1.502816f
C103 dac_in vss 0.376878f
C104 bootstrapped_sw_p_0/vg vss 1.498165f
C105 bootstrapped_sw_p_0/vbsh vss 14.27723f
C106 bootstrapped_sw_p_0/vbsl vss 7.956583f
C107 sample vss 20.84873f
C108 ctl9 vss 0.916847f
C109 ctl8 vss 0.916847f
C110 ctl7 vss 0.916847f
C111 ctl6 vss 0.916847f
C112 ctl5 vss 0.916847f
C113 ctl4 vss 0.916847f
C114 ctl3 vss 0.916847f
C115 ctl1 vss 0.916847f
C116 vdd vss 19.888897f
C117 ctl10 vss 1.146163f
C118 ctl2 vss 0.916847f
C119 carray_p_0/ndum vss 14.881693f
C120 dum vss 1.125528f
.ends

.subckt inv_n VSS ZN I VDD VPW VNW VSUBS
X0 VDD I ZN VNW pfet_06v0 ad=1.2078p pd=4.42u as=0.4575p ps=1.97u w=1.22u l=0.5u
X1 ZN I VSS VSUBS nfet_06v0 ad=0.2255p pd=1.37u as=0.5084p ps=2.88u w=0.82u l=0.6u
X2 VSS I ZN VSUBS nfet_06v0 ad=0.8118p pd=3.62u as=0.2255p ps=1.37u w=0.82u l=0.6u
X3 ZN I VDD VNW pfet_06v0 ad=0.4575p pd=1.97u as=0.7564p ps=3.68u w=1.22u l=0.5u
C0 VDD VNW 0.082022f
C1 ZN VSS 0.180794f
C2 I ZN 0.58604f
C3 VDD ZN 0.271625f
C4 I VSS 0.091531f
C5 VDD VSS 0.029045f
C6 VDD I 0.074838f
C7 ZN VNW 0.023676f
C8 VNW VSS 0.006277f
C9 I VNW 0.285482f
C10 VSS VSUBS 0.296769f
C11 ZN VSUBS 0.099188f
C12 VDD VSUBS 0.238483f
C13 I VSUBS 0.610668f
C14 VNW VSUBS 1.31158f
.ends

.subckt inv_renketu_n inv_n_8/I inv_n_1/I inv_n_7/ZN inv_n_4/ZN inv_n_1/ZN inv_n_3/I
+ vdd inv_n_5/I inv_n_7/I inv_n_9/ZN inv_n_9/I inv_n_6/ZN inv_n_10/ZN inv_n_3/ZN inv_n_0/ZN
+ inv_n_0/I inv_n_10/I inv_n_2/I inv_n_4/I inv_n_8/ZN inv_n_5/ZN inv_n_6/I inv_n_2/ZN
+ vss
Xinv_n_0 vss inv_n_0/ZN inv_n_0/I vdd inv_n_0/VPW vdd vss inv_n
Xinv_n_1 vss inv_n_1/ZN inv_n_1/I vdd inv_n_1/VPW vdd vss inv_n
Xinv_n_2 vss inv_n_2/ZN inv_n_2/I vdd inv_n_2/VPW vdd vss inv_n
Xinv_n_3 vss inv_n_3/ZN inv_n_3/I vdd inv_n_3/VPW vdd vss inv_n
Xinv_n_4 vss inv_n_4/ZN inv_n_4/I vdd inv_n_4/VPW vdd vss inv_n
Xinv_n_5 vss inv_n_5/ZN inv_n_5/I vdd inv_n_5/VPW vdd vss inv_n
Xinv_n_6 vss inv_n_6/ZN inv_n_6/I vdd inv_n_6/VPW vdd vss inv_n
Xinv_n_7 vss inv_n_7/ZN inv_n_7/I vdd inv_n_7/VPW vdd vss inv_n
Xinv_n_8 vss inv_n_8/ZN inv_n_8/I vdd inv_n_8/VPW vdd vss inv_n
Xinv_n_9 vss inv_n_9/ZN inv_n_9/I vdd inv_n_9/VPW vdd vss inv_n
Xinv_n_10 vss inv_n_10/ZN inv_n_10/I vdd inv_n_10/VPW vdd vss inv_n
C0 vss inv_n_9/ZN 0.003326f
C1 inv_n_5/I inv_n_6/ZN 0.028928f
C2 vss inv_n_2/ZN 0.005014f
C3 vdd inv_n_5/I 0.019437f
C4 vss inv_n_2/I 0.164788f
C5 vss inv_n_5/ZN 0.003326f
C6 inv_n_4/I vss 0.166388f
C7 inv_n_7/I inv_n_6/ZN 0.002086f
C8 vdd inv_n_7/I 0.019437f
C9 inv_n_9/ZN inv_n_9/I 0.029333f
C10 vss inv_n_0/I 0.170492f
C11 vss inv_n_10/ZN 0.003326f
C12 inv_n_1/ZN vss 0.003326f
C13 inv_n_1/I inv_n_3/ZN 0.002086f
C14 vdd inv_n_1/I 0.019437f
C15 inv_n_8/I inv_n_8/ZN 0.029333f
C16 vdd inv_n_3/ZN 0.159176f
C17 vdd inv_n_6/ZN 0.159176f
C18 inv_n_5/ZN inv_n_4/ZN 0.080571f
C19 inv_n_6/I inv_n_5/ZN 0.002086f
C20 vss inv_n_8/ZN 0.003326f
C21 inv_n_4/I inv_n_4/ZN 0.029333f
C22 inv_n_3/I inv_n_0/I 0.08416f
C23 inv_n_7/ZN inv_n_8/ZN 0.080571f
C24 vdd inv_n_10/I 0.019437f
C25 vss inv_n_5/I 0.166388f
C26 inv_n_1/ZN inv_n_3/I 0.028928f
C27 inv_n_0/I inv_n_0/ZN 0.029333f
C28 inv_n_1/ZN inv_n_4/ZN 0.080571f
C29 inv_n_9/I inv_n_10/ZN 0.028928f
C30 inv_n_9/I inv_n_8/ZN 0.002086f
C31 inv_n_7/I inv_n_8/I 0.084161f
C32 vss inv_n_7/I 0.166388f
C33 inv_n_5/I inv_n_4/ZN 0.002086f
C34 inv_n_6/I inv_n_5/I 0.084161f
C35 inv_n_2/ZN inv_n_2/I 0.029333f
C36 inv_n_7/ZN inv_n_7/I 0.029333f
C37 vss inv_n_1/I 0.166388f
C38 vss inv_n_3/ZN 0.003326f
C39 vdd inv_n_8/I 0.019437f
C40 vss inv_n_6/ZN 0.003326f
C41 inv_n_9/ZN inv_n_10/ZN 0.080571f
C42 vss vdd 0.009518f
C43 inv_n_2/ZN inv_n_10/ZN 0.080571f
C44 inv_n_7/ZN inv_n_6/ZN 0.080571f
C45 inv_n_6/I inv_n_7/I 0.084161f
C46 vss inv_n_10/I 0.166388f
C47 inv_n_7/ZN vdd 0.159176f
C48 inv_n_4/I inv_n_5/ZN 0.028928f
C49 inv_n_9/ZN inv_n_8/ZN 0.080571f
C50 inv_n_3/I inv_n_1/I 0.084161f
C51 inv_n_10/ZN inv_n_2/I 0.002086f
C52 inv_n_3/I inv_n_3/ZN 0.029333f
C53 inv_n_1/I inv_n_4/ZN 0.028928f
C54 vdd inv_n_3/I 0.019437f
C55 inv_n_6/I inv_n_6/ZN 0.029333f
C56 inv_n_0/ZN inv_n_3/ZN 0.080571f
C57 inv_n_4/I inv_n_1/ZN 0.002086f
C58 vdd inv_n_4/ZN 0.159176f
C59 inv_n_6/I vdd 0.019437f
C60 vdd inv_n_0/ZN 0.184001f
C61 vdd inv_n_9/I 0.019437f
C62 inv_n_10/I inv_n_9/I 0.084161f
C63 inv_n_5/I inv_n_5/ZN 0.029333f
C64 inv_n_4/I inv_n_5/I 0.084161f
C65 vss inv_n_8/I 0.166388f
C66 inv_n_7/ZN inv_n_8/I 0.002086f
C67 vss inv_n_7/ZN 0.003326f
C68 vdd inv_n_9/ZN 0.159176f
C69 inv_n_2/ZN vdd 0.174722f
C70 vss inv_n_3/I 0.166388f
C71 inv_n_10/I inv_n_9/ZN 0.002086f
C72 vss inv_n_4/ZN 0.003326f
C73 inv_n_9/I inv_n_8/I 0.084161f
C74 inv_n_2/ZN inv_n_10/I 0.028928f
C75 vss inv_n_6/I 0.166388f
C76 vss inv_n_0/ZN 0.005399f
C77 vss inv_n_9/I 0.166388f
C78 inv_n_4/I inv_n_1/I 0.084161f
C79 vdd inv_n_2/I 0.035575f
C80 inv_n_6/ZN inv_n_5/ZN 0.080571f
C81 inv_n_7/ZN inv_n_6/I 0.028928f
C82 vdd inv_n_5/ZN 0.159176f
C83 inv_n_4/I vdd 0.019437f
C84 inv_n_10/I inv_n_2/I 0.084161f
C85 inv_n_0/I inv_n_3/ZN 0.028928f
C86 inv_n_7/I inv_n_8/ZN 0.028928f
C87 inv_n_1/ZN inv_n_1/I 0.029333f
C88 vdd inv_n_0/I 0.026972f
C89 inv_n_1/ZN inv_n_3/ZN 0.080571f
C90 vdd inv_n_10/ZN 0.159176f
C91 inv_n_1/ZN vdd 0.159176f
C92 inv_n_3/I inv_n_0/ZN 0.002086f
C93 inv_n_10/I inv_n_10/ZN 0.029333f
C94 vdd inv_n_8/ZN 0.159176f
C95 inv_n_9/ZN inv_n_8/I 0.028928f
C96 inv_n_10/ZN 0 0.131999f
C97 inv_n_10/I 0 0.64919f
C98 inv_n_9/ZN 0 0.131999f
C99 inv_n_9/I 0 0.64919f
C100 inv_n_8/ZN 0 0.131999f
C101 inv_n_8/I 0 0.64919f
C102 inv_n_7/ZN 0 0.131999f
C103 inv_n_7/I 0 0.64919f
C104 inv_n_6/ZN 0 0.131999f
C105 inv_n_6/I 0 0.64919f
C106 inv_n_5/ZN 0 0.131999f
C107 inv_n_5/I 0 0.64919f
C108 inv_n_4/ZN 0 0.131999f
C109 inv_n_4/I 0 0.64919f
C110 inv_n_3/ZN 0 0.131999f
C111 inv_n_3/I 0 0.64919f
C112 vss 0 3.02573f
C113 inv_n_2/ZN 0 0.206166f
C114 vdd 0 16.013325f
C115 inv_n_2/I 0 0.750024f
C116 inv_n_1/ZN 0 0.131999f
C117 inv_n_1/I 0 0.64919f
C118 inv_n_0/ZN 0 0.209411f
C119 inv_n_0/I 0 0.731246f
.ends

.subckt XM2_bs_n G D a_n302_n324# a_n302_252# S
X0 D G S a_n302_n324# nfet_06v0 ad=0.44p pd=2.88u as=0.44p ps=2.88u w=1u l=0.7u
C0 S G 0.002868f
C1 S D 0.038197f
C2 D G 0.002868f
C3 D a_n302_n324# 0.061257f
C4 S a_n302_n324# 0.061257f
C5 G a_n302_n324# 0.361695f
.ends

.subckt XMs1_bs_n G D a_n302_n324# S
X0 D G S a_n302_n324# nfet_06v0 ad=0.44p pd=2.88u as=0.44p ps=2.88u w=1u l=0.7u
C0 D S 0.038197f
C1 D G 0.002868f
C2 G S 0.002868f
C3 D a_n302_n324# 0.068446f
C4 S a_n302_n324# 0.066063f
C5 G a_n302_n324# 0.365275f
.ends

.subckt XM3_bs_n G D w_n319_n356# S VSUBS
X0 D G S w_n319_n356# pfet_06v0 ad=0.44p pd=2.88u as=0.44p ps=2.88u w=1u l=0.55u
C0 S G 0.002389f
C1 D w_n319_n356# 0.019807f
C2 S w_n319_n356# 0.021189f
C3 S D 0.045397f
C4 w_n319_n356# G 0.186402f
C5 D G 0.002389f
C6 D VSUBS 0.0454f
C7 S VSUBS 0.0454f
C8 G VSUBS 0.124686f
C9 w_n319_n356# VSUBS 1.47408f
.ends

.subckt XMs2_bs_n G D a_n302_n324# a_n302_252# S
X0 D G S a_n302_n324# nfet_06v0 ad=0.44p pd=2.88u as=0.44p ps=2.88u w=1u l=0.7u
C0 S G 0.002868f
C1 S D 0.038197f
C2 D G 0.002868f
C3 D a_n302_n324# 0.068446f
C4 S a_n302_n324# 0.068446f
C5 G a_n302_n324# 0.365186f
.ends

.subckt XM4_bs_n G D w_n319_n356# S VSUBS
X0 D G S w_n319_n356# pfet_06v0 ad=0.44p pd=2.88u as=0.44p ps=2.88u w=1u l=0.55u
C0 S G 0.002389f
C1 D w_n319_n356# 0.019807f
C2 S w_n319_n356# 0.021189f
C3 S D 0.045397f
C4 w_n319_n356# G 0.186402f
C5 D G 0.002389f
C6 D VSUBS 0.0454f
C7 S VSUBS 0.0454f
C8 G VSUBS 0.124686f
C9 w_n319_n356# VSUBS 1.47408f
.ends

.subckt XM1_bs_inv_n G D a_n302_n324# S
X0 D G S a_n302_n324# nfet_06v0 ad=0.44p pd=2.88u as=0.44p ps=2.88u w=1u l=0.7u
C0 D S 0.038197f
C1 D G 0.002868f
C2 G S 0.002868f
C3 D a_n302_n324# 0.066063f
C4 S a_n302_n324# 0.066063f
C5 G a_n302_n324# 0.365365f
.ends

.subckt XM2_bs_inv_n G D w_n319_n356# S VSUBS
X0 D G S w_n319_n356# pfet_06v0 ad=0.44p pd=2.88u as=0.44p ps=2.88u w=1u l=0.55u
C0 S G 0.002389f
C1 D w_n319_n356# 0.019807f
C2 S w_n319_n356# 0.019807f
C3 S D 0.045397f
C4 w_n319_n356# G 0.186609f
C5 D G 0.002389f