* NGSPICE file created from sarlogic.ext - technology: gf180mcuD

* Black-box entry subcircuit for gf180mcu_fd_sc_mcu7t5v0__fillcap_8 abstract view
.subckt gf180mcu_fd_sc_mcu7t5v0__fillcap_8 VDD VNW VPW VSS
.ends

* Black-box entry subcircuit for gf180mcu_fd_sc_mcu7t5v0__antenna abstract view
.subckt gf180mcu_fd_sc_mcu7t5v0__antenna I VDD VNW VPW VSS
.ends

* Black-box entry subcircuit for gf180mcu_fd_sc_mcu7t5v0__nor2_1 abstract view
.subckt gf180mcu_fd_sc_mcu7t5v0__nor2_1 A1 A2 ZN VDD VNW VPW VSS
.ends

* Black-box entry subcircuit for gf180mcu_fd_sc_mcu7t5v0__dffrnq_1 abstract view
.subckt gf180mcu_fd_sc_mcu7t5v0__dffrnq_1 D RN CLK Q VDD VNW VPW VSS
.ends

* Black-box entry subcircuit for gf180mcu_fd_sc_mcu7t5v0__filltie abstract view
.subckt gf180mcu_fd_sc_mcu7t5v0__filltie VDD VSS
.ends

* Black-box entry subcircuit for gf180mcu_fd_sc_mcu7t5v0__oai22_1 abstract view
.subckt gf180mcu_fd_sc_mcu7t5v0__oai22_1 A1 A2 B1 B2 ZN VDD VNW VPW VSS
.ends

* Black-box entry subcircuit for gf180mcu_fd_sc_mcu7t5v0__aoi22_1 abstract view
.subckt gf180mcu_fd_sc_mcu7t5v0__aoi22_1 A1 A2 B1 B2 ZN VDD VNW VPW VSS
.ends

* Black-box entry subcircuit for gf180mcu_fd_sc_mcu7t5v0__fill_1 abstract view
.subckt gf180mcu_fd_sc_mcu7t5v0__fill_1 VDD VNW VPW VSS
.ends

* Black-box entry subcircuit for gf180mcu_fd_sc_mcu7t5v0__buf_1 abstract view
.subckt gf180mcu_fd_sc_mcu7t5v0__buf_1 I Z VDD VNW VPW VSS
.ends

* Black-box entry subcircuit for gf180mcu_fd_sc_mcu7t5v0__clkinv_1 abstract view
.subckt gf180mcu_fd_sc_mcu7t5v0__clkinv_1 I ZN VDD VNW VPW VSS
.ends

* Black-box entry subcircuit for gf180mcu_fd_sc_mcu7t5v0__fill_2 abstract view
.subckt gf180mcu_fd_sc_mcu7t5v0__fill_2 VDD VNW VPW VSS
.ends

* Black-box entry subcircuit for gf180mcu_fd_sc_mcu7t5v0__inv_1 abstract view
.subckt gf180mcu_fd_sc_mcu7t5v0__inv_1 I ZN VDD VNW VPW VSS
.ends

* Black-box entry subcircuit for gf180mcu_fd_sc_mcu7t5v0__fillcap_4 abstract view
.subckt gf180mcu_fd_sc_mcu7t5v0__fillcap_4 VDD VNW VPW VSS
.ends

* Black-box entry subcircuit for gf180mcu_fd_sc_mcu7t5v0__buf_8 abstract view
.subckt gf180mcu_fd_sc_mcu7t5v0__buf_8 I Z VDD VNW VPW VSS
.ends

* Black-box entry subcircuit for gf180mcu_fd_sc_mcu7t5v0__aoi21_1 abstract view
.subckt gf180mcu_fd_sc_mcu7t5v0__aoi21_1 A1 A2 B ZN VDD VNW VPW VSS
.ends

* Black-box entry subcircuit for gf180mcu_fd_sc_mcu7t5v0__endcap abstract view
.subckt gf180mcu_fd_sc_mcu7t5v0__endcap VDD VSS
.ends

* Black-box entry subcircuit for gf180mcu_fd_sc_mcu7t5v0__clkbuf_1 abstract view
.subckt gf180mcu_fd_sc_mcu7t5v0__clkbuf_1 I Z VDD VNW VPW VSS
.ends

* Black-box entry subcircuit for gf180mcu_fd_sc_mcu7t5v0__fillcap_32 abstract view
.subckt gf180mcu_fd_sc_mcu7t5v0__fillcap_32 VDD VNW VPW VSS
.ends

* Black-box entry subcircuit for gf180mcu_fd_sc_mcu7t5v0__nand3_1 abstract view
.subckt gf180mcu_fd_sc_mcu7t5v0__nand3_1 A1 A2 A3 ZN VDD VNW VPW VSS
.ends

* Black-box entry subcircuit for gf180mcu_fd_sc_mcu7t5v0__nand2_1 abstract view
.subckt gf180mcu_fd_sc_mcu7t5v0__nand2_1 A1 A2 ZN VDD VNW VPW VSS
.ends

* Black-box entry subcircuit for gf180mcu_fd_sc_mcu7t5v0__or2_1 abstract view
.subckt gf180mcu_fd_sc_mcu7t5v0__or2_1 A1 A2 Z VDD VNW VPW VSS
.ends

* Black-box entry subcircuit for gf180mcu_fd_sc_mcu7t5v0__oai211_4 abstract view
.subckt gf180mcu_fd_sc_mcu7t5v0__oai211_4 A1 A2 B C ZN VDD VNW VPW VSS
.ends

* Black-box entry subcircuit for gf180mcu_fd_sc_mcu7t5v0__clkbuf_2 abstract view
.subckt gf180mcu_fd_sc_mcu7t5v0__clkbuf_2 I Z VDD VNW VPW VSS
.ends

* Black-box entry subcircuit for gf180mcu_fd_sc_mcu7t5v0__fillcap_16 abstract view
.subckt gf180mcu_fd_sc_mcu7t5v0__fillcap_16 VDD VNW VPW VSS
.ends

* Black-box entry subcircuit for gf180mcu_fd_sc_mcu7t5v0__buf_2 abstract view
.subckt gf180mcu_fd_sc_mcu7t5v0__buf_2 I Z VDD VNW VPW VSS
.ends

* Black-box entry subcircuit for gf180mcu_fd_sc_mcu7t5v0__mux2_2 abstract view
.subckt gf180mcu_fd_sc_mcu7t5v0__mux2_2 I0 I1 S Z VDD VNW VPW VSS
.ends

* Black-box entry subcircuit for gf180mcu_fd_sc_mcu7t5v0__oai21_1 abstract view
.subckt gf180mcu_fd_sc_mcu7t5v0__oai21_1 A1 A2 B ZN VDD VNW VPW VSS
.ends

* Black-box entry subcircuit for gf180mcu_fd_sc_mcu7t5v0__clkbuf_3 abstract view
.subckt gf180mcu_fd_sc_mcu7t5v0__clkbuf_3 I Z VDD VNW VPW VSS
.ends

* Black-box entry subcircuit for gf180mcu_fd_sc_mcu7t5v0__nor2_2 abstract view
.subckt gf180mcu_fd_sc_mcu7t5v0__nor2_2 A1 A2 ZN VDD VNW VPW VSS
.ends

* Black-box entry subcircuit for gf180mcu_fd_sc_mcu7t5v0__nor3_1 abstract view
.subckt gf180mcu_fd_sc_mcu7t5v0__nor3_1 A1 A2 A3 ZN VDD VNW VPW VSS
.ends

* Black-box entry subcircuit for gf180mcu_fd_sc_mcu7t5v0__nand3_4 abstract view
.subckt gf180mcu_fd_sc_mcu7t5v0__nand3_4 A1 A2 A3 ZN VDD VNW VPW VSS
.ends

* Black-box entry subcircuit for gf180mcu_fd_sc_mcu7t5v0__and2_1 abstract view
.subckt gf180mcu_fd_sc_mcu7t5v0__and2_1 A1 A2 Z VDD VNW VPW VSS
.ends

* Black-box entry subcircuit for gf180mcu_fd_sc_mcu7t5v0__aoi211_4 abstract view
.subckt gf180mcu_fd_sc_mcu7t5v0__aoi211_4 A1 A2 B C ZN VDD VNW VPW VSS
.ends

* Black-box entry subcircuit for gf180mcu_fd_sc_mcu7t5v0__nor3_4 abstract view
.subckt gf180mcu_fd_sc_mcu7t5v0__nor3_4 A1 A2 A3 ZN VDD VNW VPW VSS
.ends

* Black-box entry subcircuit for gf180mcu_fd_sc_mcu7t5v0__nor3_2 abstract view
.subckt gf180mcu_fd_sc_mcu7t5v0__nor3_2 A1 A2 A3 ZN VDD VNW VPW VSS
.ends

* Black-box entry subcircuit for gf180mcu_fd_sc_mcu7t5v0__aoi211_2 abstract view
.subckt gf180mcu_fd_sc_mcu7t5v0__aoi211_2 A1 A2 B C ZN VDD VNW VPW VSS
.ends

* Black-box entry subcircuit for gf180mcu_fd_sc_mcu7t5v0__xor3_1 abstract view
.subckt gf180mcu_fd_sc_mcu7t5v0__xor3_1 A1 A2 A3 Z VDD VNW VPW VSS
.ends

* Black-box entry subcircuit for gf180mcu_fd_sc_mcu7t5v0__nand2_2 abstract view
.subckt gf180mcu_fd_sc_mcu7t5v0__nand2_2 A1 A2 ZN VDD VNW VPW VSS
.ends

* Black-box entry subcircuit for gf180mcu_fd_sc_mcu7t5v0__oai31_2 abstract view
.subckt gf180mcu_fd_sc_mcu7t5v0__oai31_2 A1 A2 A3 B ZN VDD VNW VPW VSS
.ends

* Black-box entry subcircuit for gf180mcu_fd_sc_mcu7t5v0__dffrnq_2 abstract view
.subckt gf180mcu_fd_sc_mcu7t5v0__dffrnq_2 D RN CLK Q VDD VNW VPW VSS
.ends

* Black-box entry subcircuit for gf180mcu_fd_sc_mcu7t5v0__nand4_2 abstract view
.subckt gf180mcu_fd_sc_mcu7t5v0__nand4_2 A1 A2 A3 A4 ZN VDD VNW VPW VSS
.ends

* Black-box entry subcircuit for gf180mcu_fd_sc_mcu7t5v0__clkinv_2 abstract view
.subckt gf180mcu_fd_sc_mcu7t5v0__clkinv_2 I ZN VDD VNW VPW VSS
.ends

* Black-box entry subcircuit for gf180mcu_fd_sc_mcu7t5v0__oai32_1 abstract view
.subckt gf180mcu_fd_sc_mcu7t5v0__oai32_1 A1 A2 A3 B1 B2 ZN VDD VNW VPW VSS
.ends

* Black-box entry subcircuit for gf180mcu_fd_sc_mcu7t5v0__xnor3_1 abstract view
.subckt gf180mcu_fd_sc_mcu7t5v0__xnor3_1 A1 A2 A3 ZN VDD VNW VPW VSS
.ends

* Black-box entry subcircuit for gf180mcu_fd_sc_mcu7t5v0__oai211_2 abstract view
.subckt gf180mcu_fd_sc_mcu7t5v0__oai211_2 A1 A2 B C ZN VDD VNW VPW VSS
.ends

* Black-box entry subcircuit for gf180mcu_fd_sc_mcu7t5v0__and3_1 abstract view
.subckt gf180mcu_fd_sc_mcu7t5v0__and3_1 A1 A2 A3 Z VDD VNW VPW VSS
.ends

* Black-box entry subcircuit for gf180mcu_fd_sc_mcu7t5v0__nand3_2 abstract view
.subckt gf180mcu_fd_sc_mcu7t5v0__nand3_2 A1 A2 A3 ZN VDD VNW VPW VSS
.ends

* Black-box entry subcircuit for gf180mcu_fd_sc_mcu7t5v0__nor4_4 abstract view
.subckt gf180mcu_fd_sc_mcu7t5v0__nor4_4 A1 A2 A3 A4 ZN VDD VNW VPW VSS
.ends

* Black-box entry subcircuit for gf180mcu_fd_sc_mcu7t5v0__aoi21_2 abstract view
.subckt gf180mcu_fd_sc_mcu7t5v0__aoi21_2 A1 A2 B ZN VDD VNW VPW VSS
.ends

* Black-box entry subcircuit for gf180mcu_fd_sc_mcu7t5v0__inv_2 abstract view
.subckt gf180mcu_fd_sc_mcu7t5v0__inv_2 I ZN VDD VNW VPW VSS
.ends

* Black-box entry subcircuit for gf180mcu_fd_sc_mcu7t5v0__dffsnq_1 abstract view
.subckt gf180mcu_fd_sc_mcu7t5v0__dffsnq_1 D SETN CLK Q VDD VNW VPW VSS
.ends

.subckt sarlogic cal clk clkc comp ctln[0] ctln[1] ctln[2] ctln[3] ctln[4] ctln[5]
+ ctln[6] ctln[7] ctln[8] ctln[9] ctlp[0] ctlp[1] ctlp[2] ctlp[3] ctlp[4] ctlp[5]
+ ctlp[6] ctlp[7] ctlp[8] ctlp[9] en result[0] result[1] result[2] result[3] result[4]
+ result[5] result[6] result[7] result[8] result[9] rstn sample trim[0] trim[1] trim[2]
+ trim[3] trim[4] trimb[0] trimb[1] trimb[2] trimb[3] trimb[4] valid vdd vss
XFILLER_0_17_200 vdd vdd vss vss gf180mcu_fd_sc_mcu7t5v0__fillcap_8
XANTENNA_fanout56_I net57 vdd vdd vss vss gf180mcu_fd_sc_mcu7t5v0__antenna
X_294_ _104_ _106_ _008_ vdd vdd vss vss gf180mcu_fd_sc_mcu7t5v0__nor2_1
X_432_ _021_ net63 net80 mask\[3\] vdd vdd vss vss gf180mcu_fd_sc_mcu7t5v0__dffrnq_1
XTAP_TAPCELL_ROW_15_117 vdd vss gf180mcu_fd_sc_mcu7t5v0__filltie
X_363_ _151_ _153_ _154_ _155_ _028_ vdd vdd vss vss gf180mcu_fd_sc_mcu7t5v0__oai22_1
X_346_ mask\[4\] _141_ _144_ mask\[5\] _145_ vdd vdd vss vss gf180mcu_fd_sc_mcu7t5v0__aoi22_1
X_415_ _004_ net58 net75 net27 vdd vdd vss vss gf180mcu_fd_sc_mcu7t5v0__dffrnq_1
XTAP_TAPCELL_ROW_8_88 vdd vss gf180mcu_fd_sc_mcu7t5v0__filltie
XFILLER_0_0_4 vdd vdd vss vss gf180mcu_fd_sc_mcu7t5v0__fill_1
X_277_ _093_ _094_ vdd vdd vss vss gf180mcu_fd_sc_mcu7t5v0__buf_1
X_200_ net20 net10 vdd vdd vss vss gf180mcu_fd_sc_mcu7t5v0__clkinv_1
XFILLER_0_10_41 vdd vdd vss vss gf180mcu_fd_sc_mcu7t5v0__fill_2
X_329_ calibrate _133_ vdd vdd vss vss gf180mcu_fd_sc_mcu7t5v0__inv_1
XFILLER_0_19_125 vdd vdd vss vss gf180mcu_fd_sc_mcu7t5v0__fillcap_4
XFILLER_0_19_61 vdd vdd vss vss gf180mcu_fd_sc_mcu7t5v0__fill_1
XFILLER_0_19_72 vdd vdd vss vss gf180mcu_fd_sc_mcu7t5v0__fill_2
XANTENNA__392__A2 _077_ vdd vdd vss vss gf180mcu_fd_sc_mcu7t5v0__antenna
XFILLER_0_15_150 vdd vdd vss vss gf180mcu_fd_sc_mcu7t5v0__fillcap_4
XFILLER_0_1_72 vdd vdd vss vss gf180mcu_fd_sc_mcu7t5v0__fill_2
XFILLER_0_21_142 vdd vdd vss vss gf180mcu_fd_sc_mcu7t5v0__fillcap_8
XFILLER_0_16_73 vdd vdd vss vss gf180mcu_fd_sc_mcu7t5v0__fillcap_8
Xoutput20 net20 ctlp[3] vdd vdd vss vss gf180mcu_fd_sc_mcu7t5v0__buf_8
XTAP_TAPCELL_ROW_18_126 vdd vss gf180mcu_fd_sc_mcu7t5v0__filltie
Xoutput31 net31 result[4] vdd vdd vss vss gf180mcu_fd_sc_mcu7t5v0__buf_8
Xoutput42 net42 trim[4] vdd vdd vss vss gf180mcu_fd_sc_mcu7t5v0__buf_8
Xoutput7 net7 ctln[0] vdd vdd vss vss gf180mcu_fd_sc_mcu7t5v0__buf_8
XFILLER_0_5_128 vdd vdd vss vss gf180mcu_fd_sc_mcu7t5v0__fillcap_8
XFILLER_0_5_117 vdd vdd vss vss gf180mcu_fd_sc_mcu7t5v0__fillcap_4
XFILLER_0_4_172 vdd vdd vss vss gf180mcu_fd_sc_mcu7t5v0__fill_2
X_293_ mask\[4\] _105_ net31 _106_ vdd vdd vss vss gf180mcu_fd_sc_mcu7t5v0__aoi21_1
X_431_ _020_ net53 net70 mask\[2\] vdd vdd vss vss gf180mcu_fd_sc_mcu7t5v0__dffrnq_1
X_362_ trim_mask\[1\] _155_ vdd vdd vss vss gf180mcu_fd_sc_mcu7t5v0__clkinv_1
XFILLER_0_13_96 vdd vdd vss vss gf180mcu_fd_sc_mcu7t5v0__fill_2
XFILLER_0_13_52 vdd vdd vss vss gf180mcu_fd_sc_mcu7t5v0__fill_2
XFILLER_0_9_231 vdd vdd vss vss gf180mcu_fd_sc_mcu7t5v0__fill_1
X_345_ _132_ _144_ vdd vdd vss vss gf180mcu_fd_sc_mcu7t5v0__buf_1
X_276_ _092_ _093_ vdd vdd vss vss gf180mcu_fd_sc_mcu7t5v0__buf_1
XTAP_TAPCELL_ROW_8_89 vdd vss gf180mcu_fd_sc_mcu7t5v0__filltie
X_414_ _003_ net59 net76 cal_itt\[3\] vdd vdd vss vss gf180mcu_fd_sc_mcu7t5v0__dffrnq_1
XPHY_EDGE_ROW_21_Right_21 vdd vss gf180mcu_fd_sc_mcu7t5v0__endcap
XPHY_EDGE_ROW_12_Right_12 vdd vss gf180mcu_fd_sc_mcu7t5v0__endcap
XFILLER_0_10_251 vdd vdd vss vss gf180mcu_fd_sc_mcu7t5v0__fill_2
X_328_ _114_ _132_ vdd vdd vss vss gf180mcu_fd_sc_mcu7t5v0__clkbuf_1
XFILLER_0_9_28 vdd vdd vss vss gf180mcu_fd_sc_mcu7t5v0__fillcap_32
XFILLER_0_3_204 vdd vdd vss vss gf180mcu_fd_sc_mcu7t5v0__fillcap_4
X_259_ _073_ _076_ _078_ _080_ vdd vdd vss vss gf180mcu_fd_sc_mcu7t5v0__nand3_1
XFILLER_0_3_237 vdd vdd vss vss gf180mcu_fd_sc_mcu7t5v0__fill_1
XFILLER_0_16_107 vdd vdd vss vss gf180mcu_fd_sc_mcu7t5v0__fillcap_8
XPHY_EDGE_ROW_12_Left_37 vdd vss gf180mcu_fd_sc_mcu7t5v0__endcap
XANTENNA_fanout79_I net81 vdd vdd vss vss gf180mcu_fd_sc_mcu7t5v0__antenna
XFILLER_0_21_154 vdd vdd vss vss gf180mcu_fd_sc_mcu7t5v0__fill_2
XFILLER_0_16_41 vdd vdd vss vss gf180mcu_fd_sc_mcu7t5v0__fill_1
XANTENNA__358__I _053_ vdd vdd vss vss gf180mcu_fd_sc_mcu7t5v0__antenna
XFILLER_0_12_165 vdd vdd vss vss gf180mcu_fd_sc_mcu7t5v0__fill_2
XPHY_EDGE_ROW_6_Right_6 vdd vss gf180mcu_fd_sc_mcu7t5v0__endcap
XFILLER_0_8_104 vdd vdd vss vss gf180mcu_fd_sc_mcu7t5v0__fill_1
Xoutput21 net21 ctlp[4] vdd vdd vss vss gf180mcu_fd_sc_mcu7t5v0__buf_8
Xoutput43 net43 trimb[0] vdd vdd vss vss gf180mcu_fd_sc_mcu7t5v0__buf_8
Xoutput32 net32 result[5] vdd vdd vss vss gf180mcu_fd_sc_mcu7t5v0__buf_8
XTAP_TAPCELL_ROW_18_127 vdd vss gf180mcu_fd_sc_mcu7t5v0__filltie
Xoutput10 net10 ctln[3] vdd vdd vss vss gf180mcu_fd_sc_mcu7t5v0__buf_8
Xoutput8 net8 ctln[1] vdd vdd vss vss gf180mcu_fd_sc_mcu7t5v0__buf_8
XANTENNA_input3_I comp vdd vdd vss vss gf180mcu_fd_sc_mcu7t5v0__antenna
X_292_ _098_ _105_ vdd vdd vss vss gf180mcu_fd_sc_mcu7t5v0__buf_1
X_430_ _019_ net63 net80 mask\[1\] vdd vdd vss vss gf180mcu_fd_sc_mcu7t5v0__dffrnq_1
XPHY_EDGE_ROW_15_Left_40 vdd vss gf180mcu_fd_sc_mcu7t5v0__endcap
X_361_ _086_ _119_ _154_ vdd vdd vss vss gf180mcu_fd_sc_mcu7t5v0__nand2_1
XFILLER_0_7_72 vdd vdd vss vss gf180mcu_fd_sc_mcu7t5v0__fillcap_32
XPHY_EDGE_ROW_0_Left_25 vdd vss gf180mcu_fd_sc_mcu7t5v0__endcap
X_344_ _143_ _021_ vdd vdd vss vss gf180mcu_fd_sc_mcu7t5v0__clkinv_1
X_275_ _069_ _091_ _092_ vdd vdd vss vss gf180mcu_fd_sc_mcu7t5v0__nor2_1
XTAP_TAPCELL_ROW_11_100 vdd vss gf180mcu_fd_sc_mcu7t5v0__filltie
XANTENNA__191__I net17 vdd vdd vss vss gf180mcu_fd_sc_mcu7t5v0__antenna
X_413_ _002_ net59 net76 cal_itt\[2\] vdd vdd vss vss gf180mcu_fd_sc_mcu7t5v0__dffrnq_1
XFILLER_0_24_96 vdd vdd vss vss gf180mcu_fd_sc_mcu7t5v0__fillcap_4
XFILLER_0_24_63 vdd vdd vss vss gf180mcu_fd_sc_mcu7t5v0__fillcap_4
XFILLER_0_19_138 vdd vdd vss vss gf180mcu_fd_sc_mcu7t5v0__fill_2
X_189_ net27 mask\[0\] _043_ vdd vdd vss vss gf180mcu_fd_sc_mcu7t5v0__or2_1
X_327_ _127_ _130_ _131_ _016_ vdd vdd vss vss gf180mcu_fd_sc_mcu7t5v0__aoi21_1
XFILLER_0_10_43 vdd vdd vss vss gf180mcu_fd_sc_mcu7t5v0__fill_1
XFILLER_0_10_32 vdd vdd vss vss gf180mcu_fd_sc_mcu7t5v0__fill_2
XFILLER_0_3_216 vdd vdd vss vss gf180mcu_fd_sc_mcu7t5v0__fill_2
X_258_ _078_ _079_ vdd vdd vss vss gf180mcu_fd_sc_mcu7t5v0__buf_1
XFILLER_0_18_171 vdd vdd vss vss gf180mcu_fd_sc_mcu7t5v0__fillcap_4
XFILLER_0_2_260 vdd vdd vss vss gf180mcu_fd_sc_mcu7t5v0__fill_1
XFILLER_0_24_130 vdd vdd vss vss gf180mcu_fd_sc_mcu7t5v0__fillcap_4
XFILLER_0_16_119 vdd vdd vss vss gf180mcu_fd_sc_mcu7t5v0__fill_1
XANTENNA__377__A1 _053_ vdd vdd vss vss gf180mcu_fd_sc_mcu7t5v0__antenna
XFILLER_0_21_166 vdd vdd vss vss gf180mcu_fd_sc_mcu7t5v0__fill_2
XFILLER_0_21_133 vdd vdd vss vss gf180mcu_fd_sc_mcu7t5v0__fillcap_4
XFILLER_0_8_138 vdd vdd vss vss gf180mcu_fd_sc_mcu7t5v0__fillcap_4
XFILLER_0_8_127 vdd vdd vss vss gf180mcu_fd_sc_mcu7t5v0__fillcap_4
Xoutput22 net22 ctlp[5] vdd vdd vss vss gf180mcu_fd_sc_mcu7t5v0__buf_8
Xoutput33 net33 result[6] vdd vdd vss vss gf180mcu_fd_sc_mcu7t5v0__buf_8
Xoutput44 net44 trimb[1] vdd vdd vss vss gf180mcu_fd_sc_mcu7t5v0__buf_8
XTAP_TAPCELL_ROW_18_128 vdd vss gf180mcu_fd_sc_mcu7t5v0__filltie
Xoutput11 net11 ctln[4] vdd vdd vss vss gf180mcu_fd_sc_mcu7t5v0__buf_8
Xoutput9 net9 ctln[2] vdd vdd vss vss gf180mcu_fd_sc_mcu7t5v0__buf_8
XANTENNA__194__I net18 vdd vdd vss vss gf180mcu_fd_sc_mcu7t5v0__antenna
X_291_ _092_ _104_ vdd vdd vss vss gf180mcu_fd_sc_mcu7t5v0__buf_1
XFILLER_0_4_152 vdd vdd vss vss gf180mcu_fd_sc_mcu7t5v0__fillcap_4
XFILLER_0_4_174 vdd vdd vss vss gf180mcu_fd_sc_mcu7t5v0__fill_1
XFILLER_0_4_185 vdd vdd vss vss gf180mcu_fd_sc_mcu7t5v0__fillcap_4
X_360_ _152_ _153_ vdd vdd vss vss gf180mcu_fd_sc_mcu7t5v0__buf_1
XFILLER_0_23_228 vdd vdd vss vss gf180mcu_fd_sc_mcu7t5v0__fill_2
XFILLER_0_13_65 vdd vdd vss vss gf180mcu_fd_sc_mcu7t5v0__fillcap_4
XFILLER_0_13_43 vdd vdd vss vss gf180mcu_fd_sc_mcu7t5v0__fill_1
XTAP_TAPCELL_ROW_20_134 vdd vss gf180mcu_fd_sc_mcu7t5v0__filltie
XFILLER_0_13_294 vdd vdd vss vss gf180mcu_fd_sc_mcu7t5v0__fill_1
XFILLER_0_9_266 vdd vdd vss vss gf180mcu_fd_sc_mcu7t5v0__fill_2
XFILLER_0_1_188 vdd vdd vss vss gf180mcu_fd_sc_mcu7t5v0__fill_2
X_343_ mask\[3\] _141_ _137_ mask\[4\] _143_ vdd vdd vss vss gf180mcu_fd_sc_mcu7t5v0__aoi22_1
XTAP_TAPCELL_ROW_11_101 vdd vss gf180mcu_fd_sc_mcu7t5v0__filltie
X_274_ net4 _060_ _072_ _090_ _091_ vdd vdd vss vss gf180mcu_fd_sc_mcu7t5v0__oai211_4
XFILLER_0_11_209 vdd vdd vss vss gf180mcu_fd_sc_mcu7t5v0__fill_1
X_412_ _001_ net58 net75 cal_itt\[1\] vdd vdd vss vss gf180mcu_fd_sc_mcu7t5v0__dffrnq_1
XFILLER_0_24_31 vdd vdd vss vss gf180mcu_fd_sc_mcu7t5v0__fill_2
XFILLER_0_10_253 vdd vdd vss vss gf180mcu_fd_sc_mcu7t5v0__fill_1
XFILLER_0_10_242 vdd vdd vss vss gf180mcu_fd_sc_mcu7t5v0__fill_2
XANTENNA__292__I _098_ vdd vdd vss vss gf180mcu_fd_sc_mcu7t5v0__antenna
X_326_ _125_ _131_ vdd vdd vss vss gf180mcu_fd_sc_mcu7t5v0__clkbuf_2
XTAP_TAPCELL_ROW_9_90 vdd vss gf180mcu_fd_sc_mcu7t5v0__filltie
X_257_ _053_ _075_ _077_ _078_ vdd vdd vss vss gf180mcu_fd_sc_mcu7t5v0__aoi21_1
X_309_ net4 _116_ vdd vdd vss vss gf180mcu_fd_sc_mcu7t5v0__inv_1
XANTENNA__197__I net19 vdd vdd vss vss gf180mcu_fd_sc_mcu7t5v0__antenna
XFILLER_0_24_164 vdd vdd vss vss gf180mcu_fd_sc_mcu7t5v0__fill_2
XANTENNA__301__A2 _098_ vdd vdd vss vss gf180mcu_fd_sc_mcu7t5v0__antenna
XFILLER_0_15_142 vdd vdd vss vss gf180mcu_fd_sc_mcu7t5v0__fillcap_8
XFILLER_0_21_156 vdd vdd vss vss gf180mcu_fd_sc_mcu7t5v0__fill_1
XFILLER_0_16_32 vdd vdd vss vss gf180mcu_fd_sc_mcu7t5v0__fill_2
XFILLER_0_12_101 vdd vdd vss vss gf180mcu_fd_sc_mcu7t5v0__fill_2
XTAP_TAPCELL_ROW_6_80 vdd vss gf180mcu_fd_sc_mcu7t5v0__filltie
Xoutput23 net23 ctlp[6] vdd vdd vss vss gf180mcu_fd_sc_mcu7t5v0__buf_8
Xoutput45 net45 trimb[2] vdd vdd vss vss gf180mcu_fd_sc_mcu7t5v0__buf_8
Xoutput34 net34 result[7] vdd vdd vss vss gf180mcu_fd_sc_mcu7t5v0__buf_8
Xoutput12 net12 ctln[5] vdd vdd vss vss gf180mcu_fd_sc_mcu7t5v0__buf_8
XFILLER_0_7_150 vdd vdd vss vss gf180mcu_fd_sc_mcu7t5v0__fill_2
XTAP_TAPCELL_ROW_18_129 vdd vss gf180mcu_fd_sc_mcu7t5v0__filltie
XFILLER_0_5_109 vdd vdd vss vss gf180mcu_fd_sc_mcu7t5v0__fillcap_8
XFILLER_0_17_237 vdd vdd vss vss gf180mcu_fd_sc_mcu7t5v0__fill_1
XFILLER_0_17_226 vdd vdd vss vss gf180mcu_fd_sc_mcu7t5v0__fillcap_4
XFILLER_0_4_197 vdd vdd vss vss gf180mcu_fd_sc_mcu7t5v0__fillcap_16
X_290_ _094_ _103_ _007_ vdd vdd vss vss gf180mcu_fd_sc_mcu7t5v0__nor2_1
XTAP_TAPCELL_ROW_14_110 vdd vss gf180mcu_fd_sc_mcu7t5v0__filltie
XTAP_TAPCELL_ROW_20_135 vdd vss gf180mcu_fd_sc_mcu7t5v0__filltie
XFILLER_0_9_278 vdd vdd vss vss gf180mcu_fd_sc_mcu7t5v0__fill_2
XFILLER_0_9_223 vdd vdd vss vss gf180mcu_fd_sc_mcu7t5v0__fillcap_8
XFILLER_0_9_212 vdd vdd vss vss gf180mcu_fd_sc_mcu7t5v0__fill_2
X_342_ _142_ _020_ vdd vdd vss vss gf180mcu_fd_sc_mcu7t5v0__clkinv_1
X_273_ state\[0\] _090_ vdd vdd vss vss gf180mcu_fd_sc_mcu7t5v0__buf_2
X_411_ _000_ net58 net75 cal_itt\[0\] vdd vdd vss vss gf180mcu_fd_sc_mcu7t5v0__dffrnq_1
XFILLER_0_19_76 vdd vdd vss vss gf180mcu_fd_sc_mcu7t5v0__fill_1
Xfanout80 net81 net80 vdd vdd vss vss gf180mcu_fd_sc_mcu7t5v0__clkbuf_1
X_325_ _118_ _129_ _130_ vdd vdd vss vss gf180mcu_fd_sc_mcu7t5v0__nor2_1
XFILLER_0_10_78 vdd vdd vss vss gf180mcu_fd_sc_mcu7t5v0__fillcap_16
XFILLER_0_10_34 vdd vdd vss vss gf180mcu_fd_sc_mcu7t5v0__fill_1
X_256_ net4 _076_ _056_ _068_ _077_ vdd vdd vss vss gf180mcu_fd_sc_mcu7t5v0__oai211_4
XFILLER_0_3_218 vdd vdd vss vss gf180mcu_fd_sc_mcu7t5v0__fill_1
XFILLER_0_19_129 vdd vdd vss vss gf180mcu_fd_sc_mcu7t5v0__fill_1
XTAP_TAPCELL_ROW_9_91 vdd vss gf180mcu_fd_sc_mcu7t5v0__filltie
XFILLER_0_24_198 vdd vdd vss vss gf180mcu_fd_sc_mcu7t5v0__fill_2
X_308_ trim_mask\[0\] _114_ _058_ _115_ vdd vdd vss vss gf180mcu_fd_sc_mcu7t5v0__mux2_2
XFILLER_0_1_98 vdd vdd vss vss gf180mcu_fd_sc_mcu7t5v0__fillcap_4
X_239_ _065_ net41 vdd vdd vss vss gf180mcu_fd_sc_mcu7t5v0__clkbuf_2
XFILLER_0_15_154 vdd vdd vss vss gf180mcu_fd_sc_mcu7t5v0__fill_2
XFILLER_0_12_124 vdd vdd vss vss gf180mcu_fd_sc_mcu7t5v0__fillcap_4
XFILLER_0_12_113 vdd vdd vss vss gf180mcu_fd_sc_mcu7t5v0__fill_2
XTAP_TAPCELL_ROW_6_81 vdd vss gf180mcu_fd_sc_mcu7t5v0__filltie
XFILLER_0_8_107 vdd vdd vss vss gf180mcu_fd_sc_mcu7t5v0__fillcap_4
Xoutput24 net24 ctlp[7] vdd vdd vss vss gf180mcu_fd_sc_mcu7t5v0__buf_8
Xoutput35 net35 result[8] vdd vdd vss vss gf180mcu_fd_sc_mcu7t5v0__buf_8
Xoutput46 net46 trimb[3] vdd vdd vss vss gf180mcu_fd_sc_mcu7t5v0__buf_8
XFILLER_0_18_2 vdd vdd vss vss gf180mcu_fd_sc_mcu7t5v0__fillcap_32
Xoutput13 net13 ctln[6] vdd vdd vss vss gf180mcu_fd_sc_mcu7t5v0__buf_8
XFILLER_0_7_162 vdd vdd vss vss gf180mcu_fd_sc_mcu7t5v0__fillcap_4
XFILLER_0_7_195 vdd vdd vss vss gf180mcu_fd_sc_mcu7t5v0__fillcap_4
XPHY_EDGE_ROW_19_Right_19 vdd vss gf180mcu_fd_sc_mcu7t5v0__endcap
XPHY_EDGE_ROW_19_Left_44 vdd vss gf180mcu_fd_sc_mcu7t5v0__endcap
XTAP_TAPCELL_ROW_14_111 vdd vss gf180mcu_fd_sc_mcu7t5v0__filltie
XFILLER_0_13_56 vdd vdd vss vss gf180mcu_fd_sc_mcu7t5v0__fill_2
XANTENNA_input1_I cal vdd vdd vss vss gf180mcu_fd_sc_mcu7t5v0__antenna
XFILLER_0_1_146 vdd vdd vss vss gf180mcu_fd_sc_mcu7t5v0__fill_2
XFILLER_0_1_102 vdd vdd vss vss gf180mcu_fd_sc_mcu7t5v0__fill_2
XANTENNA__414__RN net59 vdd vdd vss vss gf180mcu_fd_sc_mcu7t5v0__antenna
XTAP_TAPCELL_ROW_20_136 vdd vss gf180mcu_fd_sc_mcu7t5v0__filltie
X_341_ mask\[2\] _141_ _137_ mask\[3\] _142_ vdd vdd vss vss gf180mcu_fd_sc_mcu7t5v0__aoi22_1
X_410_ _120_ _187_ _188_ _042_ vdd vdd vss vss gf180mcu_fd_sc_mcu7t5v0__oai21_1
X_272_ _079_ _087_ _089_ _003_ vdd vdd vss vss gf180mcu_fd_sc_mcu7t5v0__aoi21_1
XFILLER_0_24_33 vdd vdd vss vss gf180mcu_fd_sc_mcu7t5v0__fill_1
XFILLER_0_6_227 vdd vdd vss vss gf180mcu_fd_sc_mcu7t5v0__fill_2
XFILLER_0_10_244 vdd vdd vss vss gf180mcu_fd_sc_mcu7t5v0__fill_1
XFILLER_0_4_32 vdd vdd vss vss gf180mcu_fd_sc_mcu7t5v0__fill_2
XPHY_EDGE_ROW_4_Left_29 vdd vss gf180mcu_fd_sc_mcu7t5v0__endcap
XFILLER_0_5_282 vdd vdd vss vss gf180mcu_fd_sc_mcu7t5v0__fill_2
Xfanout70 net73 net70 vdd vdd vss vss gf180mcu_fd_sc_mcu7t5v0__clkbuf_1
X_255_ _057_ _076_ vdd vdd vss vss gf180mcu_fd_sc_mcu7t5v0__clkbuf_3
X_324_ calibrate _062_ _129_ vdd vdd vss vss gf180mcu_fd_sc_mcu7t5v0__nor2_1
XANTENNA_output40_I net40 vdd vdd vss vss gf180mcu_fd_sc_mcu7t5v0__antenna
XFILLER_0_3_208 vdd vdd vss vss gf180mcu_fd_sc_mcu7t5v0__fill_2
Xfanout81 net82 net81 vdd vdd vss vss gf180mcu_fd_sc_mcu7t5v0__buf_1
XFILLER_0_19_55 vdd vdd vss vss gf180mcu_fd_sc_mcu7t5v0__fillcap_4
XANTENNA__304__A1 _093_ vdd vdd vss vss gf180mcu_fd_sc_mcu7t5v0__antenna
XTAP_TAPCELL_ROW_9_92 vdd vss gf180mcu_fd_sc_mcu7t5v0__filltie
XTAP_TAPCELL_ROW_0_50 vdd vss gf180mcu_fd_sc_mcu7t5v0__filltie
XFILLER_0_24_100 vdd vdd vss vss gf180mcu_fd_sc_mcu7t5v0__fill_2
XFILLER_0_21_78 vdd vdd vss vss gf180mcu_fd_sc_mcu7t5v0__fill_2
X_307_ _113_ _096_ _114_ vdd vdd vss vss gf180mcu_fd_sc_mcu7t5v0__nor2_2
X_238_ trim_mask\[3\] trim_val\[3\] _065_ vdd vdd vss vss gf180mcu_fd_sc_mcu7t5v0__or2_1
XFILLER_0_15_188 vdd vdd vss vss gf180mcu_fd_sc_mcu7t5v0__fill_2
XFILLER_0_21_125 vdd vdd vss vss gf180mcu_fd_sc_mcu7t5v0__fillcap_8
XFILLER_0_16_89 vdd vdd vss vss gf180mcu_fd_sc_mcu7t5v0__fillcap_16
XFILLER_0_16_34 vdd vdd vss vss gf180mcu_fd_sc_mcu7t5v0__fill_1
XPHY_EDGE_ROW_7_Left_32 vdd vss gf180mcu_fd_sc_mcu7t5v0__endcap
XFILLER_0_12_136 vdd vdd vss vss gf180mcu_fd_sc_mcu7t5v0__fillcap_16
XFILLER_0_7_152 vdd vdd vss vss gf180mcu_fd_sc_mcu7t5v0__fill_1
Xoutput25 net25 ctlp[8] vdd vdd vss vss gf180mcu_fd_sc_mcu7t5v0__buf_8
Xoutput47 net47 trimb[4] vdd vdd vss vss gf180mcu_fd_sc_mcu7t5v0__buf_8
Xoutput36 net36 result[9] vdd vdd vss vss gf180mcu_fd_sc_mcu7t5v0__buf_8
Xoutput14 net14 ctln[7] vdd vdd vss vss gf180mcu_fd_sc_mcu7t5v0__buf_8
XFILLER_0_4_144 vdd vdd vss vss gf180mcu_fd_sc_mcu7t5v0__fillcap_8
XFILLER_0_4_177 vdd vdd vss vss gf180mcu_fd_sc_mcu7t5v0__fillcap_8
XFILLER_0_7_10 vdd vdd vss vss gf180mcu_fd_sc_mcu7t5v0__fill_2
XFILLER_0_23_209 vdd vdd vss vss gf180mcu_fd_sc_mcu7t5v0__fill_1
XTAP_TAPCELL_ROW_14_112 vdd vss gf180mcu_fd_sc_mcu7t5v0__filltie
XTAP_TAPCELL_ROW_20_137 vdd vss gf180mcu_fd_sc_mcu7t5v0__filltie
XFILLER_0_9_214 vdd vdd vss vss gf180mcu_fd_sc_mcu7t5v0__fill_1
XFILLER_0_24_67 vdd vdd vss vss gf180mcu_fd_sc_mcu7t5v0__fill_1
X_340_ _140_ _141_ vdd vdd vss vss gf180mcu_fd_sc_mcu7t5v0__buf_1
XPHY_EDGE_ROW_20_Left_45 vdd vss gf180mcu_fd_sc_mcu7t5v0__endcap
X_271_ cal_itt\[3\] _089_ vdd vdd vss vss gf180mcu_fd_sc_mcu7t5v0__clkinv_1
XANTENNA__356__B _093_ vdd vdd vss vss gf180mcu_fd_sc_mcu7t5v0__antenna
XFILLER_0_10_256 vdd vdd vss vss gf180mcu_fd_sc_mcu7t5v0__fillcap_4
XANTENNA__200__I net20 vdd vdd vss vss gf180mcu_fd_sc_mcu7t5v0__antenna
XANTENNA_fanout52_I net57 vdd vdd vss vss gf180mcu_fd_sc_mcu7t5v0__antenna
XFILLER_0_4_99 vdd vdd vss vss gf180mcu_fd_sc_mcu7t5v0__fillcap_4
XFILLER_0_6_239 vdd vdd vss vss gf180mcu_fd_sc_mcu7t5v0__fillcap_4
Xfanout71 net73 net71 vdd vdd vss vss gf180mcu_fd_sc_mcu7t5v0__clkbuf_1
Xfanout60 net61 net60 vdd vdd vss vss gf180mcu_fd_sc_mcu7t5v0__clkbuf_2
X_323_ _128_ _015_ vdd vdd vss vss gf180mcu_fd_sc_mcu7t5v0__clkbuf_1
Xfanout82 net2 net82 vdd vdd vss vss gf180mcu_fd_sc_mcu7t5v0__clkbuf_1
X_254_ cal_itt\[3\] _072_ _074_ _075_ vdd vdd vss vss gf180mcu_fd_sc_mcu7t5v0__nor3_1
XTAP_TAPCELL_ROW_9_93 vdd vss gf180mcu_fd_sc_mcu7t5v0__filltie
XTAP_TAPCELL_ROW_0_51 vdd vss gf180mcu_fd_sc_mcu7t5v0__filltie
XFILLER_0_24_134 vdd vdd vss vss gf180mcu_fd_sc_mcu7t5v0__fill_2
X_237_ net40 net45 vdd vdd vss vss gf180mcu_fd_sc_mcu7t5v0__clkinv_1
XFILLER_0_21_68 vdd vdd vss vss gf180mcu_fd_sc_mcu7t5v0__fill_2
X_306_ _057_ _113_ vdd vdd vss vss gf180mcu_fd_sc_mcu7t5v0__buf_2
XFILLER_0_21_137 vdd vdd vss vss gf180mcu_fd_sc_mcu7t5v0__fill_2
XFILLER_0_16_57 vdd vdd vss vss gf180mcu_fd_sc_mcu7t5v0__fillcap_16
XFILLER_0_12_115 vdd vdd vss vss gf180mcu_fd_sc_mcu7t5v0__fill_1
Xoutput26 net26 ctlp[9] vdd vdd vss vss gf180mcu_fd_sc_mcu7t5v0__buf_8
XPHY_EDGE_ROW_1_Right_1 vdd vss gf180mcu_fd_sc_mcu7t5v0__endcap
Xoutput15 net15 ctln[8] vdd vdd vss vss gf180mcu_fd_sc_mcu7t5v0__buf_8
Xoutput48 net48 valid vdd vdd vss vss gf180mcu_fd_sc_mcu7t5v0__buf_8
Xoutput37 net37 sample vdd vdd vss vss gf180mcu_fd_sc_mcu7t5v0__buf_8
XFILLER_0_7_120 vdd vdd vss vss gf180mcu_fd_sc_mcu7t5v0__fill_2
XFILLER_0_17_218 vdd vdd vss vss gf180mcu_fd_sc_mcu7t5v0__fillcap_8
XFILLER_0_4_123 vdd vdd vss vss gf180mcu_fd_sc_mcu7t5v0__fillcap_4
XFILLER_0_4_156 vdd vdd vss vss gf180mcu_fd_sc_mcu7t5v0__fill_1
XTAP_TAPCELL_ROW_23_146 vdd vss gf180mcu_fd_sc_mcu7t5v0__filltie
XANTENNA__203__I net21 vdd vdd vss vss gf180mcu_fd_sc_mcu7t5v0__antenna
XFILLER_0_7_55 vdd vdd vss vss gf180mcu_fd_sc_mcu7t5v0__fill_2
XTAP_TAPCELL_ROW_14_113 vdd vss gf180mcu_fd_sc_mcu7t5v0__filltie
XFILLER_0_13_69 vdd vdd vss vss gf180mcu_fd_sc_mcu7t5v0__fill_1
XFILLER_0_13_58 vdd vdd vss vss gf180mcu_fd_sc_mcu7t5v0__fill_1
XFILLER_0_1_104 vdd vdd vss vss gf180mcu_fd_sc_mcu7t5v0__fill_1
X_270_ _079_ _087_ _088_ _002_ vdd vdd vss vss gf180mcu_fd_sc_mcu7t5v0__aoi21_1
X_399_ cal_count\[1\] _178_ _179_ vdd vdd vss vss gf180mcu_fd_sc_mcu7t5v0__nor2_1
XFILLER_0_4_34 vdd vdd vss vss gf180mcu_fd_sc_mcu7t5v0__fill_1
X_322_ _068_ _124_ _127_ _128_ vdd vdd vss vss gf180mcu_fd_sc_mcu7t5v0__mux2_2
XFILLER_0_5_284 vdd vdd vss vss gf180mcu_fd_sc_mcu7t5v0__fill_1
Xfanout61 net62 net61 vdd vdd vss vss gf180mcu_fd_sc_mcu7t5v0__clkbuf_1
Xfanout72 net74 net72 vdd vdd vss vss gf180mcu_fd_sc_mcu7t5v0__clkbuf_1
XFILLER_0_10_37 vdd vdd vss vss gf180mcu_fd_sc_mcu7t5v0__fillcap_4
XTAP_TAPCELL_ROW_0_52 vdd vss gf180mcu_fd_sc_mcu7t5v0__filltie
Xfanout50 net52 net50 vdd vdd vss vss gf180mcu_fd_sc_mcu7t5v0__clkbuf_2
X_253_ cal_itt\[0\] cal_itt\[1\] cal_itt\[2\] _074_ vdd vdd vss vss gf180mcu_fd_sc_mcu7t5v0__nand3_4
XFILLER_0_24_168 vdd vdd vss vss gf180mcu_fd_sc_mcu7t5v0__fill_2
X_305_ net1 _081_ _112_ vdd vdd vss vss gf180mcu_fd_sc_mcu7t5v0__and2_1
X_236_ _064_ net40 vdd vdd vss vss gf180mcu_fd_sc_mcu7t5v0__clkbuf_2
XFILLER_0_15_124 vdd vdd vss vss gf180mcu_fd_sc_mcu7t5v0__fill_2
XANTENNA__206__I net22 vdd vdd vss vss gf180mcu_fd_sc_mcu7t5v0__antenna
XTAP_TAPCELL_ROW_10_94 vdd vss gf180mcu_fd_sc_mcu7t5v0__filltie
XFILLER_0_20_193 vdd vdd vss vss gf180mcu_fd_sc_mcu7t5v0__fillcap_8
X_219_ trim_mask\[0\] _053_ vdd vdd vss vss gf180mcu_fd_sc_mcu7t5v0__buf_1
Xoutput27 net27 result[0] vdd vdd vss vss gf180mcu_fd_sc_mcu7t5v0__buf_8
Xoutput16 net16 ctln[9] vdd vdd vss vss gf180mcu_fd_sc_mcu7t5v0__buf_8
Xoutput38 net38 trim[0] vdd vdd vss vss gf180mcu_fd_sc_mcu7t5v0__buf_8
XFILLER_0_17_208 vdd vdd vss vss gf180mcu_fd_sc_mcu7t5v0__fill_2
XTAP_TAPCELL_ROW_17_122 vdd vss gf180mcu_fd_sc_mcu7t5v0__filltie
XPHY_EDGE_ROW_24_Right_24 vdd vss gf180mcu_fd_sc_mcu7t5v0__endcap
XTAP_TAPCELL_ROW_23_147 vdd vss gf180mcu_fd_sc_mcu7t5v0__filltie
XFILLER_0_16_241 vdd vdd vss vss gf180mcu_fd_sc_mcu7t5v0__fillcap_4
XPHY_EDGE_ROW_15_Right_15 vdd vss gf180mcu_fd_sc_mcu7t5v0__endcap
XFILLER_0_7_12 vdd vdd vss vss gf180mcu_fd_sc_mcu7t5v0__fill_1
XFILLER_0_7_67 vdd vdd vss vss gf180mcu_fd_sc_mcu7t5v0__fill_2
XFILLER_0_13_48 vdd vdd vss vss gf180mcu_fd_sc_mcu7t5v0__fill_2
XFILLER_0_5_2 vdd vdd vss vss gf180mcu_fd_sc_mcu7t5v0__fill_2
XFILLER_0_24_36 vdd vdd vss vss gf180mcu_fd_sc_mcu7t5v0__fill_1
X_398_ net3 _178_ vdd vdd vss vss gf180mcu_fd_sc_mcu7t5v0__clkbuf_1
XFILLER_0_10_247 vdd vdd vss vss gf180mcu_fd_sc_mcu7t5v0__fillcap_4
XFILLER_0_10_214 vdd vdd vss vss gf180mcu_fd_sc_mcu7t5v0__fillcap_4
XFILLER_0_14_91 vdd vdd vss vss gf180mcu_fd_sc_mcu7t5v0__fillcap_8
XANTENNA__209__I net23 vdd vdd vss vss gf180mcu_fd_sc_mcu7t5v0__antenna
XANTENNA_output19_I net19 vdd vdd vss vss gf180mcu_fd_sc_mcu7t5v0__antenna
XFILLER_0_19_47 vdd vdd vss vss gf180mcu_fd_sc_mcu7t5v0__fillcap_8
XFILLER_0_19_36 vdd vdd vss vss gf180mcu_fd_sc_mcu7t5v0__fill_1
Xfanout73 net74 net73 vdd vdd vss vss gf180mcu_fd_sc_mcu7t5v0__clkbuf_1
Xfanout62 net64 net62 vdd vdd vss vss gf180mcu_fd_sc_mcu7t5v0__clkbuf_2
Xfanout51 net52 net51 vdd vdd vss vss gf180mcu_fd_sc_mcu7t5v0__clkbuf_1
X_321_ _069_ _076_ _125_ _126_ _127_ vdd vdd vss vss gf180mcu_fd_sc_mcu7t5v0__aoi211_4
XTAP_TAPCELL_ROW_0_53 vdd vss gf180mcu_fd_sc_mcu7t5v0__filltie
X_252_ cal_itt\[0\] _073_ vdd vdd vss vss gf180mcu_fd_sc_mcu7t5v0__clkinv_1
XFILLER_0_18_100 vdd vdd vss vss gf180mcu_fd_sc_mcu7t5v0__fillcap_4