* NGSPICE file created from saradc.ext - technology: gf180mcuD

.subckt XM2$3$1 a_n36_120# a_n116_n100# w_n460_n310#
X0 w_n460_n310# a_n36_120# a_n116_n100# w_n460_n310# pfet_03v3 ad=0.44p pd=2.88u as=0.44p ps=2.88u w=1u l=0.28u
.ends

.subckt XM1$3$1 a_n36_20# a_n254_n386# a_28_n200#
X0 a_28_n200# a_n36_20# a_n254_n386# a_n254_n386# nfet_03v3 ad=0.44p pd=2.88u as=0.44p ps=2.88u w=1u l=0.28u
.ends

.subckt x4 out in vdd vss
XXM2$3$1_0 in out vdd XM2$3$1
XXM1$3$1_0 in vss out XM1$3$1
.ends

.subckt XM2$1$3 a_n36_120# a_n116_n100# w_n278_n310#
X0 w_n278_n310# a_n36_120# a_n116_n100# w_n278_n310# pfet_03v3 ad=0.44p pd=2.88u as=0.44p ps=2.88u w=1u l=0.28u
.ends

.subckt XM1$1$3 a_n36_20# a_n254_n386# a_28_n200#
X0 a_28_n200# a_n36_20# a_n254_n386# a_n254_n386# nfet_03v3 ad=0.44p pd=2.88u as=0.44p ps=2.88u w=1u l=0.28u
.ends

.subckt x2 out in vdd vss
XXM2$1$3_0 in out vdd XM2$1$3
XXM1$1$3_0 in vss out XM1$1$3
.ends

.subckt XM4$5 a_258_n1293# a_258_n1793# a_396_n1607# a_476_n1387#
X0 a_540_n1607# a_476_n1387# a_396_n1607# a_258_n1793# nfet_03v3 ad=0.44p pd=2.88u as=0.44p ps=2.88u w=1u l=0.28u
.ends

.subckt XM3$5 a_n67_n1582# a_n349_n1268# a_n131_n1362# a_n349_n1768#
X0 a_n67_n1582# a_n131_n1362# a_n211_n1582# a_n349_n1768# nfet_03v3 ad=0.44p pd=2.88u as=0.44p ps=2.88u w=1u l=0.28u
.ends

.subckt XM2$2$1 a_n36_120# a_n116_n100# w_n460_n310#
X0 w_n460_n310# a_n36_120# a_n116_n100# w_n460_n310# pfet_03v3 ad=0.44p pd=2.88u as=0.44p ps=2.88u w=1u l=0.28u
.ends

.subckt XM1$2$1 a_n36_20# a_n254_n386# a_28_n200#
X0 a_28_n200# a_n36_20# a_n254_n386# a_n254_n386# nfet_03v3 ad=0.44p pd=2.88u as=0.44p ps=2.88u w=1u l=0.28u
.ends

.subckt x3 out in vdd vss
XXM2$2$1_0 in out vdd XM2$2$1
XXM1$2$1_0 in vss out XM1$2$1
.ends

.subckt XM1$5 a_n36_20# a_n254_n386# a_n254_114# a_28_n200#
X0 a_28_n200# a_n36_20# a_n254_n386# a_n254_n386# nfet_03v3 ad=0.44p pd=2.88u as=0.44p ps=2.88u w=1u l=0.28u
.ends

.subckt XM2$5 a_n36_120# a_n116_n100# w_n278_n310#
X0 w_n278_n310# a_n36_120# a_n116_n100# w_n278_n310# pfet_03v3 ad=0.44p pd=2.88u as=0.44p ps=2.88u w=1u l=0.28u
.ends

.subckt x1 out in vdd XM1$5_0/a_n254_114# vss
XXM1$5_0 in vss XM1$5_0/a_n254_114# out XM1$5
XXM2$5_0 in out vdd XM2$5
.ends

.subckt latch Qn Q S R VSUBS
Xx4_0 x4_0/out S Q VSUBS x4
Xx2_0 Qn Q Q VSUBS x2
XXM4$5_0 VSUBS VSUBS Q x3_0/out XM4$5
XXM3$5_0 Qn VSUBS x4_0/out VSUBS XM3$5
Xx3_0 x3_0/out R Q VSUBS x3
Xx1_0 Q Qn Q VSUBS VSUBS x1
.ends

.subckt XM2$6 a_n36_120# a_n116_n100# w_n278_n310#
X0 w_n278_n310# a_n36_120# a_n116_n100# w_n278_n310# pfet_03v3 ad=0.44p pd=2.88u as=0.44p ps=2.88u w=1u l=0.28u
.ends

.subckt XM1$6 a_n36_20# a_n254_n386# a_28_n200#
X0 a_28_n200# a_n36_20# a_n254_n386# a_n254_n386# nfet_03v3 ad=0.44p pd=2.88u as=0.44p ps=2.88u w=1u l=0.28u
.ends

.subckt inv$2 out in vdd vss
XXM2$6_0 in out vdd XM2$6
XXM1$6_0 in vss out XM1$6
.ends

.subckt buffer in out inv$2_1/vdd VSUBS
Xinv$2_0 inv$2_1/in in inv$2_1/vdd VSUBS inv$2
Xinv$2_1 out inv$2_1/in inv$2_1/vdd VSUBS inv$2
.ends

.subckt XM3 a_n3152_1140# a_n3064_1048# w_n3314_932# a_n2964_1140#
X0 a_n2964_1140# a_n3064_1048# a_n3152_1140# w_n3314_932# pfet_03v3 ad=0.88p pd=4.88u as=0.88p ps=4.88u w=2u l=0.5u
.ends

.subckt XM1 a_912_4129# a_995_4229# a_811_3903# a_1507_3903# a_995_4041#
X0 a_995_4229# a_912_4129# a_995_4041# a_811_3903# nfet_03v3 ad=0.88p pd=4.88u as=0.88p ps=4.88u w=2u l=0.5u
.ends

.subckt XMs a_1030_4680# a_1030_4868# a_947_4768# a_846_4542#
X0 a_1030_4868# a_947_4768# a_1030_4680# a_846_4542# nfet_03v3 ad=0.88p pd=4.88u as=0.88p ps=4.88u w=2u l=0.5u
.ends

.subckt cap_mim_2p0fF_8JNR63 m4_n3440_n548# m4_n3800_n668#
X0 m4_n3440_n548# m4_n3800_n668# cap_mim_2f0_m4m5_noshield c_width=8u c_length=8u
.ends

.subckt sw_cap_unit in out
Xcap_mim_2p0fF_8JNR63_0 out in cap_mim_2p0fF_8JNR63
.ends

.subckt sw_cap out in
Xsw_cap_unit_0 in out sw_cap_unit
Xsw_cap_unit_1 in out sw_cap_unit
Xsw_cap_unit_2 in out sw_cap_unit
Xsw_cap_unit_3 in out sw_cap_unit
Xsw_cap_unit_4 in out sw_cap_unit
.ends

.subckt XMs1 a_n2529_n616# a_n2717_n616# a_n2629_n699# a_n2855_n800#
X0 a_n2529_n616# a_n2629_n699# a_n2717_n616# a_n2855_n800# nfet_03v3 ad=0.88p pd=4.88u as=0.88p ps=4.88u w=2u l=0.5u
.ends

.subckt XM4 a_n2550_442# a_n2362_442# w_n2712_234# a_n2462_359#
X0 a_n2362_442# a_n2462_359# a_n2550_442# w_n2712_234# pfet_03v3 ad=0.88p pd=4.88u as=0.88p ps=4.88u w=2u l=0.5u
.ends

.subckt XM2_inv a_n36_120# a_n116_n100# w_n278_n310#
X0 w_n278_n310# a_n36_120# a_n116_n100# w_n278_n310# pfet_03v3 ad=0.44p pd=2.88u as=0.44p ps=2.88u w=1u l=0.28u
.ends

.subckt XM1_inv a_n36_20# a_n254_n386# a_28_n200#
X0 a_28_n200# a_n36_20# a_n254_n386# a_n254_n386# nfet_03v3 ad=0.44p pd=2.88u as=0.44p ps=2.88u w=1u l=0.28u
.ends

.subckt inv out in vdd vss
XXM2_inv_0 in out vdd XM2_inv
XXM1_inv_0 in vss out XM1_inv
.ends

.subckt XM2 a_912_3686# a_811_3460# a_995_3786# a_1507_3460# a_995_3598#
X0 a_995_3786# a_912_3686# a_995_3598# a_811_3460# nfet_03v3 ad=0.88p pd=4.88u as=0.88p ps=4.88u w=2u l=0.5u
.ends

.subckt XMs2 a_n3762_561# a_n3988_469# a_n3662_653# a_n3850_653# a_n3988_1165#
X0 a_n3662_653# a_n3762_561# a_n3850_653# a_n3988_469# nfet_03v3 ad=0.88p pd=4.88u as=0.88p ps=4.88u w=2u l=0.5u
.ends

.subckt bootstrapped_sw vbsl vbsh in vdd vss en enb out vs vg
XXM3_0 vbsh vg XM4_0/w_n2712_234# vdd XM3
XXM1_0 vg vbsl vss vss in XM1
XXMs_0 out in vg vss XMs
Xsw_cap_0 vbsh vbsl sw_cap
XXMs1_0 vs vg vdd vss XMs1
XXM4_0 vg vbsh XM4_0/w_n2712_234# enb XM4
Xinv_0 enb en vdd vss inv
XXM2_0 enb vss vss vss vbsl XM2
XXMs2_0 enb vss vss vs vss XMs2
.ends

.subckt inv$1 VSS ZN I VDD VNW VPW
X0 VDD I ZN VNW pfet_06v0 ad=1.2078p pd=4.42u as=0.4575p ps=1.97u w=1.22u l=0.5u
X1 ZN I VSS VPW nfet_06v0 ad=0.2255p pd=1.37u as=0.5084p ps=2.88u w=0.82u l=0.6u
X2 VSS I ZN VPW nfet_06v0 ad=0.8118p pd=3.62u as=0.2255p ps=1.37u w=0.82u l=0.6u
X3 ZN I VDD VNW pfet_06v0 ad=0.4575p pd=1.97u as=0.7564p ps=3.68u w=1.22u l=0.5u
.ends

.subckt dummy VSS ZN I VDD VNW VPW
X0 VSS I ZN VPW nfet_06v0 ad=0.8118p pd=3.62u as=0.2255p ps=1.37u w=0.82u l=0.6u
X1 ZN I VSS VPW nfet_06v0 ad=0.2255p pd=1.37u as=0.5084p ps=2.88u w=0.82u l=0.6u
X2 VDD I ZN VNW pfet_06v0 ad=1.2078p pd=4.42u as=0.4575p ps=1.97u w=1.22u l=0.5u
X3 ZN I VDD VNW pfet_06v0 ad=0.4575p pd=1.97u as=0.7564p ps=3.68u w=1.22u l=0.5u
.ends

.subckt inv_renketu inv$1_8/I inv$1_1/I inv$1_3/I inv$1_5/I inv$1_7/I inv$1_9/ZN inv$1_6/ZN
+ inv$1_0/ZN inv$1_0/I inv$1_4/ZN inv$1_9/I inv$1_2/I inv$1_10/I inv$1_7/ZN inv$1_1/ZN
+ inv$1_3/ZN inv$1_4/I inv$1_8/ZN inv$1_10/ZN VSUBS inv$1_6/I inv$1_2/ZN inv$1_5/ZN
Xinv$1_10 inv$1_9/VSS inv$1_10/ZN inv$1_10/I inv$1_9/VDD inv$1_9/VNW VSUBS inv$1
Xinv$1_0 inv$1_9/VSS inv$1_0/ZN inv$1_0/I inv$1_9/VDD inv$1_9/VNW VSUBS inv$1
Xinv$1_1 inv$1_9/VSS inv$1_1/ZN inv$1_1/I inv$1_9/VDD inv$1_9/VNW VSUBS inv$1
Xinv$1_2 inv$1_9/VSS inv$1_2/ZN inv$1_2/I inv$1_9/VDD inv$1_9/VNW VSUBS inv$1
Xinv$1_3 inv$1_9/VSS inv$1_3/ZN inv$1_3/I inv$1_9/VDD inv$1_9/VNW VSUBS inv$1
Xinv$1_4 inv$1_9/VSS inv$1_4/ZN inv$1_4/I inv$1_9/VDD inv$1_9/VNW VSUBS inv$1
Xinv$1_5 inv$1_9/VSS inv$1_5/ZN inv$1_5/I inv$1_9/VDD inv$1_9/VNW VSUBS inv$1
Xinv$1_6 inv$1_9/VSS inv$1_6/ZN inv$1_6/I inv$1_9/VDD inv$1_9/VNW VSUBS inv$1
Xinv$1_7 inv$1_9/VSS inv$1_7/ZN inv$1_7/I inv$1_9/VDD inv$1_9/VNW VSUBS inv$1
Xinv$1_8 inv$1_9/VSS inv$1_8/ZN inv$1_8/I inv$1_9/VDD inv$1_9/VNW VSUBS inv$1
Xinv$1_9 inv$1_9/VSS inv$1_9/ZN inv$1_9/I inv$1_9/VDD inv$1_9/VNW VSUBS inv$1
Xdummy_0 inv$1_9/VSS dummy_0/ZN dummy_0/I inv$1_9/VDD inv$1_9/VNW VSUBS dummy
Xdummy_1 inv$1_9/VSS dummy_1/ZN dummy_1/I inv$1_9/VDD inv$1_9/VNW VSUBS dummy
.ends

.subckt dacp ctl0 in dum ctl2 ctl1 ctl3 ctl4 ctl5 ctl6 ctl7 ctl8 ctl9 out ndum n1
+ n2 n3 n4 n5 n6 n7 n8 n9 n0 sample bootstrapped_sw_0/vbsh vdd vss
Xbootstrapped_sw_0 bootstrapped_sw_0/vbsl bootstrapped_sw_0/vbsh in vdd vss sample
+ bootstrapped_sw_0/enb out bootstrapped_sw_0/vs bootstrapped_sw_0/vg bootstrapped_sw
Xinv_renketu_0 ctl7 ctl2 ctl1 ctl4 ctl6 n8 n5 ndum dum n3 ctl8 ctl0 ctl9 n6 n2 n1
+ ctl3 n7 n9 vss ctl5 n0 n4 inv_renketu
.ends

.subckt inv$1$1 VSS ZN I VDD VNW VPW
X0 VDD I ZN VNW pfet_06v0 ad=1.2078p pd=4.42u as=0.4575p ps=1.97u w=1.22u l=0.5u
X1 ZN I VSS VPW nfet_06v0 ad=0.2255p pd=1.37u as=0.5084p ps=2.88u w=0.82u l=0.6u
X2 VSS I ZN VPW nfet_06v0 ad=0.8118p pd=3.62u as=0.2255p ps=1.37u w=0.82u l=0.6u
X3 ZN I VDD VNW pfet_06v0 ad=0.4575p pd=1.97u as=0.7564p ps=3.68u w=1.22u l=0.5u
.ends

.subckt dummy$1 VSS ZN I VDD VNW VPW
X0 VSS I ZN VPW nfet_06v0 ad=0.8118p pd=3.62u as=0.2255p ps=1.37u w=0.82u l=0.6u
X1 ZN I VSS VPW nfet_06v0 ad=0.2255p pd=1.37u as=0.5084p ps=2.88u w=0.82u l=0.6u
X2 VDD I ZN VNW pfet_06v0 ad=1.2078p pd=4.42u as=0.4575p ps=1.97u w=1.22u l=0.5u
X3 ZN I VDD VNW pfet_06v0 ad=0.4575p pd=1.97u as=0.7564p ps=3.68u w=1.22u l=0.5u
.ends

.subckt inv_renketu$1 inv$1$1_7/I inv$1$1_6/ZN inv$1$1_9/ZN inv$1$1_0/I inv$1$1_10/I
+ inv$1$1_0/ZN inv$1$1_4/I inv$1$1_6/I inv$1$1_8/ZN inv$1$1_5/ZN inv$1$1_8/I inv$1$1_2/I
+ inv$1$1_2/ZN inv$1$1_1/I inv$1$1_9/I inv$1$1_7/ZN inv$1$1_3/ZN inv$1$1_3/I inv$1$1_4/ZN
+ inv$1$1_1/ZN inv$1$1_5/I inv$1$1_10/ZN VSUBS
Xinv$1$1_0 inv$1$1_9/VSS inv$1$1_0/ZN inv$1$1_0/I inv$1$1_9/VDD inv$1$1_9/VNW VSUBS
+ inv$1$1
Xinv$1$1_1 inv$1$1_9/VSS inv$1$1_1/ZN inv$1$1_1/I inv$1$1_9/VDD inv$1$1_9/VNW VSUBS
+ inv$1$1
Xinv$1$1_2 inv$1$1_9/VSS inv$1$1_2/ZN inv$1$1_2/I inv$1$1_9/VDD inv$1$1_9/VNW VSUBS
+ inv$1$1
Xinv$1$1_3 inv$1$1_9/VSS inv$1$1_3/ZN inv$1$1_3/I inv$1$1_9/VDD inv$1$1_9/VNW VSUBS
+ inv$1$1
Xinv$1$1_4 inv$1$1_9/VSS inv$1$1_4/ZN inv$1$1_4/I inv$1$1_9/VDD inv$1$1_9/VNW VSUBS
+ inv$1$1
Xinv$1$1_5 inv$1$1_9/VSS inv$1$1_5/ZN inv$1$1_5/I inv$1$1_9/VDD inv$1$1_9/VNW VSUBS
+ inv$1$1
Xinv$1$1_6 inv$1$1_9/VSS inv$1$1_6/ZN inv$1$1_6/I inv$1$1_9/VDD inv$1$1_9/VNW VSUBS
+ inv$1$1
Xinv$1$1_7 inv$1$1_9/VSS inv$1$1_7/ZN inv$1$1_7/I inv$1$1_9/VDD inv$1$1_9/VNW VSUBS
+ inv$1$1
Xinv$1$1_8 inv$1$1_9/VSS inv$1$1_8/ZN inv$1$1_8/I inv$1$1_9/VDD inv$1$1_9/VNW VSUBS
+ inv$1$1
Xdummy$1_0 inv$1$1_9/VSS dummy$1_0/ZN dummy$1_0/I inv$1$1_9/VDD inv$1$1_9/VNW VSUBS
+ dummy$1
Xinv$1$1_9 inv$1$1_9/VSS inv$1$1_9/ZN inv$1$1_9/I inv$1$1_9/VDD inv$1$1_9/VNW VSUBS
+ inv$1$1
Xdummy$1_1 inv$1$1_9/VSS dummy$1_1/ZN dummy$1_1/I inv$1$1_9/VDD inv$1$1_9/VNW VSUBS
+ dummy$1
Xinv$1$1_10 inv$1$1_9/VSS inv$1$1_10/ZN inv$1$1_10/I inv$1$1_9/VDD inv$1$1_9/VNW VSUBS
+ inv$1$1
.ends

.subckt XMs$1 a_1030_4680# a_1030_4868# a_947_4768# a_846_4542#
X0 a_1030_4868# a_947_4768# a_1030_4680# a_846_4542# nfet_03v3 ad=0.88p pd=4.88u as=0.88p ps=4.88u w=2u l=0.5u
.ends

.subckt XM3$4 a_n3152_1140# a_n3064_1048# w_n3314_932# a_n2964_1140#
X0 a_n2964_1140# a_n3064_1048# a_n3152_1140# w_n3314_932# pfet_03v3 ad=0.88p pd=4.88u as=0.88p ps=4.88u w=2u l=0.5u
.ends

.subckt XM2_inv$1 a_n36_120# a_n116_n100# w_n278_n310#
X0 w_n278_n310# a_n36_120# a_n116_n100# w_n278_n310# pfet_03v3 ad=0.44p pd=2.88u as=0.44p ps=2.88u w=1u l=0.28u
.ends

.subckt XM1_inv$1 a_n36_20# a_n254_n386# a_28_n200#
X0 a_28_n200# a_n36_20# a_n254_n386# a_n254_n386# nfet_03v3 ad=0.44p pd=2.88u as=0.44p ps=2.88u w=1u l=0.28u
.ends

.subckt inv$3 out in vdd vss
XXM2_inv$1_0 in out vdd XM2_inv$1
XXM1_inv$1_0 in vss out XM1_inv$1
.ends

.subckt XMs2$1 a_n3762_561# a_n3988_469# a_n3662_653# a_n3850_653# a_n3988_1165#
X0 a_n3662_653# a_n3762_561# a_n3850_653# a_n3988_469# nfet_03v3 ad=0.88p pd=4.88u as=0.88p ps=4.88u w=2u l=0.5u
.ends

.subckt XM2$4 a_912_3686# a_811_3460# a_995_3786# a_1507_3460# a_995_3598#
X0 a_995_3786# a_912_3686# a_995_3598# a_811_3460# nfet_03v3 ad=0.88p pd=4.88u as=0.88p ps=4.88u w=2u l=0.5u
.ends

.subckt cap_mim_2p0fF_8JNR63$1 m4_n3440_n548# m4_n3800_n668#
X0 m4_n3440_n548# m4_n3800_n668# cap_mim_2f0_m4m5_noshield c_width=8u c_length=8u
.ends

.subckt sw_cap_unit$1 in out
Xcap_mim_2p0fF_8JNR63_0 out in cap_mim_2p0fF_8JNR63$1
.ends

.subckt sw_cap$1 out in
Xsw_cap_unit$1_0 in out sw_cap_unit$1
Xsw_cap_unit$1_1 in out sw_cap_unit$1
Xsw_cap_unit$1_2 in out sw_cap_unit$1
Xsw_cap_unit$1_3 in out sw_cap_unit$1
Xsw_cap_unit$1_4 in out sw_cap_unit$1
.ends

.subckt XMs1$1 a_n2529_n616# a_n2717_n616# a_n2629_n699# a_n2855_n800#
X0 a_n2529_n616# a_n2629_n699# a_n2717_n616# a_n2855_n800# nfet_03v3 ad=0.88p pd=4.88u as=0.88p ps=4.88u w=2u l=0.5u
.ends

.subckt XM1$4 a_912_4129# a_995_4229# a_811_3903# a_1507_3903# a_995_4041#
X0 a_995_4229# a_912_4129# a_995_4041# a_811_3903# nfet_03v3 ad=0.88p pd=4.88u as=0.88p ps=4.88u w=2u l=0.5u
.ends

.subckt XM4$4 a_n2550_442# a_n2362_442# w_n2712_234# a_n2462_359#
X0 a_n2362_442# a_n2462_359# a_n2550_442# w_n2712_234# pfet_03v3 ad=0.88p pd=4.88u as=0.88p ps=4.88u w=2u l=0.5u
.ends

.subckt bootstrapped_sw$1 vbsl vbsh in vdd vss en enb out vs vg
XXMs$1_0 out in vg vss XMs$1
XXM3$4_0 vbsh vg XM4$4_0/w_n2712_234# vdd XM3$4
Xinv$3_0 enb en vdd vss inv$3
XXMs2$1_0 enb vss vss vs vss XMs2$1
XXM2$4_0 enb vss vss vss vbsl XM2$4
Xsw_cap$1_0 vbsh vbsl sw_cap$1
XXMs1$1_0 vs vg vdd vss XMs1$1
XXM1$4_0 vg vbsl vss vss in XM1$4
XXM4$4_0 vg vbsh XM4$4_0/w_n2712_234# enb XM4$4
.ends

.subckt dacn in dum ctl1 ctl2 ctl3 ctl4 ctl5 ctl6 ctl7 ctl8 ctl9 ctl0 out ndum n1
+ n2 n3 n4 n5 n6 n7 n8 n9 n0 sample vdd bootstrapped_sw$1_0/vbsh vss
Xinv_renketu$1_0 ctl6 n5 n8 dum ctl9 ndum ctl3 ctl5 n7 n4 ctl7 ctl0 n0 ctl2 ctl8 n6
+ n1 ctl1 n3 n2 ctl4 n9 vss inv_renketu$1
Xbootstrapped_sw$1_0 bootstrapped_sw$1_0/vbsl bootstrapped_sw$1_0/vbsh in vdd vss
+ sample bootstrapped_sw$1_0/enb out bootstrapped_sw$1_0/vs bootstrapped_sw$1_0/vg
+ bootstrapped_sw$1
.ends

.subckt XMinn a_719_n1284# a_937_n880# a_857_n1100# a_719_n788# a_1001_n1100#
X0 a_1001_n1100# a_937_n880# a_857_n1100# a_719_n1284# nfet_03v3 ad=0.44p pd=2.88u as=0.44p ps=2.88u w=1u l=0.28u
.ends

.subckt XM1$3 a_n1416_1000# a_n1336_908# a_n1272_1000# w_n1578_790#
X0 a_n1272_1000# a_n1336_908# a_n1416_1000# w_n1578_790# pfet_03v3 ad=0.44p pd=2.88u as=0.44p ps=2.88u w=1u l=0.28u
.ends

.subckt XM3$2 a_n16_n791# a_n778_n975# a_n80_n571# a_n176_n791# a_n240_n571# a_n336_n791#
+ a_n400_n571# a_n496_n791# a_n560_n571# a_n640_n791#
X0 a_n336_n791# a_n400_n571# a_n496_n791# a_n778_n975# nfet_03v3 ad=0.26p pd=1.52u as=0.26p ps=1.52u w=1u l=0.28u
X1 a_n176_n791# a_n240_n571# a_n336_n791# a_n778_n975# nfet_03v3 ad=0.26p pd=1.52u as=0.26p ps=1.52u w=1u l=0.28u
X2 a_n16_n791# a_n80_n571# a_n176_n791# a_n778_n975# nfet_03v3 ad=0.44p pd=2.88u as=0.26p ps=1.52u w=1u l=0.28u
X3 a_n496_n791# a_n560_n571# a_n640_n791# a_n778_n975# nfet_03v3 ad=0.26p pd=1.52u as=0.44p ps=2.88u w=1u l=0.28u
.ends

.subckt XM2$2 a_3_n712# a_n375_n620# a_n157_n712# a_n375_n1116# a_n237_n932# a_67_n932#
+ a_n93_n932#
X0 a_67_n932# a_3_n712# a_n93_n932# a_n375_n1116# nfet_03v3 ad=0.44p pd=2.88u as=0.26p ps=1.52u w=1u l=0.28u
X1 a_n93_n932# a_n157_n712# a_n237_n932# a_n375_n1116# nfet_03v3 ad=0.26p pd=1.52u as=0.44p ps=2.88u w=1u l=0.28u
.ends

.subckt XM0$1 a_n484_399# a_n202_583# a_n266_803# a_n484_895# a_n346_583#
X0 a_n202_583# a_n266_803# a_n346_583# a_n484_399# nfet_03v3 ad=0.44p pd=2.88u as=0.44p ps=2.88u w=1u l=0.28u
.ends

.subckt XM1$2 a_n484_399# a_n202_583# a_n266_803# a_n484_895# a_n346_583#
X0 a_n202_583# a_n266_803# a_n346_583# a_n484_399# nfet_03v3 ad=0.44p pd=2.88u as=0.44p ps=2.88u w=1u l=0.28u
.ends

.subckt XM4$2 a_1930_n696# a_2474_n916# a_1514_n916# a_2250_n696# a_1290_n696# a_1210_n916#
+ a_1674_n916# a_1450_n696# a_2410_n696# a_1072_n1100# a_1834_n916# a_1610_n696# a_2154_n916#
+ a_1994_n916# a_1770_n696# a_2314_n916# a_1354_n916# a_2090_n696#
X0 a_1834_n916# a_1770_n696# a_1674_n916# a_1072_n1100# nfet_03v3 ad=0.26p pd=1.52u as=0.26p ps=1.52u w=1u l=0.28u
X1 a_2154_n916# a_2090_n696# a_1994_n916# a_1072_n1100# nfet_03v3 ad=0.26p pd=1.52u as=0.26p ps=1.52u w=1u l=0.28u
X2 a_1674_n916# a_1610_n696# a_1514_n916# a_1072_n1100# nfet_03v3 ad=0.26p pd=1.52u as=0.26p ps=1.52u w=1u l=0.28u
X3 a_1514_n916# a_1450_n696# a_1354_n916# a_1072_n1100# nfet_03v3 ad=0.26p pd=1.52u as=0.26p ps=1.52u w=1u l=0.28u
X4 a_2474_n916# a_2410_n696# a_2314_n916# a_1072_n1100# nfet_03v3 ad=0.44p pd=2.88u as=0.26p ps=1.52u w=1u l=0.28u
X5 a_1354_n916# a_1290_n696# a_1210_n916# a_1072_n1100# nfet_03v3 ad=0.26p pd=1.52u as=0.44p ps=2.88u w=1u l=0.28u
X6 a_1994_n916# a_1930_n696# a_1834_n916# a_1072_n1100# nfet_03v3 ad=0.26p pd=1.52u as=0.26p ps=1.52u w=1u l=0.28u
X7 a_2314_n916# a_2250_n696# a_2154_n916# a_1072_n1100# nfet_03v3 ad=0.26p pd=1.52u as=0.26p ps=1.52u w=1u l=0.28u
.ends

.subckt trim_switch$1 m1_n149_n1117# m1_n1378_n1819# m1_711_n1117# m1_n2738_n1819#
+ m1_n447_n1117# m1_n2669_n1117# XM1$2_0/a_n202_583# XM0$1_0/a_n346_583# m1_n1309_n1117#
+ m1_802_n1819# VSUBS
XXM3$2_0 m1_n2738_n1819# VSUBS m1_n2669_n1117# VSUBS m1_n2669_n1117# m1_n2738_n1819#
+ m1_n2669_n1117# VSUBS m1_n2669_n1117# m1_n2738_n1819# XM3$2
XXM2$2_0 m1_n1309_n1117# VSUBS m1_n1309_n1117# VSUBS m1_n1378_n1819# m1_n1378_n1819#
+ VSUBS XM2$2
XXM0$1_0 VSUBS VSUBS m1_n447_n1117# VSUBS XM0$1_0/a_n346_583# XM0$1
XXM1$2_0 VSUBS XM1$2_0/a_n202_583# m1_n149_n1117# VSUBS VSUBS XM1$2
XXM4$2_0 m1_711_n1117# VSUBS VSUBS m1_711_n1117# m1_711_n1117# VSUBS m1_802_n1819#
+ m1_711_n1117# m1_711_n1117# VSUBS VSUBS m1_711_n1117# VSUBS m1_802_n1819# m1_711_n1117#
+ m1_802_n1819# m1_802_n1819# m1_711_n1117# XM4$2
.ends

.subckt trim drain d_4 d_1 d_0 d_2 d_3 n4 n1 n0 n2 n3 VSUBS
Xtrim_switch$1_0 d_1 n2 d_4 n3 d_0 d_3 n1 n0 d_2 n4 VSUBS trim_switch$1
.ends

.subckt XMl4 a_44_908# a_108_1000# a_n36_1000# w_n198_790#
X0 a_108_1000# a_44_908# a_n36_1000# w_n198_790# pfet_03v3 ad=0.44p pd=2.88u as=0.44p ps=2.88u w=1u l=0.28u
.ends

.subckt XM4$3 a_1264_908# a_1328_1000# w_1022_790# a_1184_1000#
X0 a_1328_1000# a_1264_908# a_1184_1000# w_1022_790# pfet_03v3 ad=0.44p pd=2.88u as=0.44p ps=2.88u w=1u l=0.28u
.ends

.subckt XMl2 a_33_n1100# a_n111_n1100# a_n31_n880# a_n249_n1284#
X0 a_33_n1100# a_n31_n880# a_n111_n1100# a_n249_n1284# nfet_03v3 ad=0.44p pd=2.88u as=0.44p ps=2.88u w=1u l=0.28u
.ends

.subckt XM3$3 a_n71_n882# a_73_n882# a_9_n662# w_n509_n1092#
X0 a_73_n882# a_9_n662# a_n71_n882# w_n509_n1092# pfet_03v3 ad=0.44p pd=2.88u as=0.44p ps=2.88u w=1u l=0.28u
.ends

.subckt XMdiff a_721_n1097# a_817_n1189# a_439_n1281# a_657_n1189# a_577_n1097# a_881_n1097#
X0 a_721_n1097# a_657_n1189# a_577_n1097# a_439_n1281# nfet_03v3 ad=0.26p pd=1.52u as=0.44p ps=2.88u w=1u l=0.28u
X1 a_881_n1097# a_817_n1189# a_721_n1097# a_439_n1281# nfet_03v3 ad=0.44p pd=2.88u as=0.26p ps=1.52u w=1u l=0.28u
.ends

.subckt XMl3 a_n116_908# w_n634_790# a_n196_1000# a_n52_1000#
X0 a_n52_1000# a_n116_908# a_n196_1000# w_n634_790# pfet_03v3 ad=0.44p pd=2.88u as=0.44p ps=2.88u w=1u l=0.28u
.ends

.subckt XM4$1 a_1930_n696# a_2474_n916# a_1514_n916# a_2250_n696# a_1290_n696# a_1210_n916#
+ a_1674_n916# a_1450_n696# a_2410_n696# a_1072_n1100# a_1834_n916# a_1610_n696# a_2154_n916#
+ a_1994_n916# a_1770_n696# a_2314_n916# a_1354_n916# a_2090_n696#
X0 a_1834_n916# a_1770_n696# a_1674_n916# a_1072_n1100# nfet_03v3 ad=0.26p pd=1.52u as=0.26p ps=1.52u w=1u l=0.28u
X1 a_2154_n916# a_2090_n696# a_1994_n916# a_1072_n1100# nfet_03v3 ad=0.26p pd=1.52u as=0.26p ps=1.52u w=1u l=0.28u
X2 a_1674_n916# a_1610_n696# a_1514_n916# a_1072_n1100# nfet_03v3 ad=0.26p pd=1.52u as=0.26p ps=1.52u w=1u l=0.28u
X3 a_1514_n916# a_1450_n696# a_1354_n916# a_1072_n1100# nfet_03v3 ad=0.26p pd=1.52u as=0.26p ps=1.52u w=1u l=0.28u
X4 a_2474_n916# a_2410_n696# a_2314_n916# a_1072_n1100# nfet_03v3 ad=0.44p pd=2.88u as=0.26p ps=1.52u w=1u l=0.28u
X5 a_1354_n916# a_1290_n696# a_1210_n916# a_1072_n1100# nfet_03v3 ad=0.26p pd=1.52u as=0.44p ps=2.88u w=1u l=0.28u
X6 a_1994_n916# a_1930_n696# a_1834_n916# a_1072_n1100# nfet_03v3 ad=0.26p pd=1.52u as=0.26p ps=1.52u w=1u l=0.28u
X7 a_2314_n916# a_2250_n696# a_2154_n916# a_1072_n1100# nfet_03v3 ad=0.26p pd=1.52u as=0.26p ps=1.52u w=1u l=0.28u
.ends

.subckt XM2$1$1 a_3_n712# a_n375_n620# a_n157_n712# a_n375_n1116# a_n237_n932# a_67_n932#
+ a_n93_n932#
X0 a_67_n932# a_3_n712# a_n93_n932# a_n375_n1116# nfet_03v3 ad=0.44p pd=2.88u as=0.26p ps=1.52u w=1u l=0.28u
X1 a_n93_n932# a_n157_n712# a_n237_n932# a_n375_n1116# nfet_03v3 ad=0.26p pd=1.52u as=0.44p ps=2.88u w=1u l=0.28u
.ends

.subckt XM1$1$1 a_n484_399# a_n202_583# a_n266_803# a_n484_895# a_n346_583#
X0 a_n202_583# a_n266_803# a_n346_583# a_n484_399# nfet_03v3 ad=0.44p pd=2.88u as=0.44p ps=2.88u w=1u l=0.28u
.ends

.subckt XM3$1 a_n16_n791# a_n778_n975# a_n80_n571# a_n176_n791# a_n240_n571# a_n336_n791#
+ a_n400_n571# a_n496_n791# a_n560_n571# a_n640_n791#
X0 a_n336_n791# a_n400_n571# a_n496_n791# a_n778_n975# nfet_03v3 ad=0.26p pd=1.52u as=0.26p ps=1.52u w=1u l=0.28u
X1 a_n176_n791# a_n240_n571# a_n336_n791# a_n778_n975# nfet_03v3 ad=0.26p pd=1.52u as=0.26p ps=1.52u w=1u l=0.28u
X2 a_n16_n791# a_n80_n571# a_n176_n791# a_n778_n975# nfet_03v3 ad=0.44p pd=2.88u as=0.26p ps=1.52u w=1u l=0.28u
X3 a_n496_n791# a_n560_n571# a_n640_n791# a_n778_n975# nfet_03v3 ad=0.26p pd=1.52u as=0.44p ps=2.88u w=1u l=0.28u
.ends

.subckt XM0 a_n484_399# a_n202_583# a_n266_803# a_n484_895# a_n346_583#
X0 a_n202_583# a_n266_803# a_n346_583# a_n484_399# nfet_03v3 ad=0.44p pd=2.88u as=0.44p ps=2.88u w=1u l=0.28u
.ends

.subckt trim_switch m1_n149_n1117# XM0_0/a_n346_583# m1_711_n1117# m1_n447_n1117#
+ m1_n2669_n1117# m1_n1378_n1819# m1_802_n1819# m1_n1309_n1117# XM1$1$1_0/a_n202_583#
+ m1_n2738_n1819# VSUBS
XXM4$1_0 m1_711_n1117# VSUBS VSUBS m1_711_n1117# m1_711_n1117# VSUBS m1_802_n1819#
+ m1_711_n1117# m1_711_n1117# VSUBS VSUBS m1_711_n1117# VSUBS m1_802_n1819# m1_711_n1117#
+ m1_802_n1819# m1_802_n1819# m1_711_n1117# XM4$1
XXM2$1$1_0 m1_n1309_n1117# VSUBS m1_n1309_n1117# VSUBS m1_n1378_n1819# m1_n1378_n1819#
+ VSUBS XM2$1$1
XXM1$1$1_0 VSUBS XM1$1$1_0/a_n202_583# m1_n149_n1117# VSUBS VSUBS XM1$1$1
XXM3$1_0 m1_n2738_n1819# VSUBS m1_n2669_n1117# VSUBS m1_n2669_n1117# m1_n2738_n1819#
+ m1_n2669_n1117# VSUBS m1_n2669_n1117# m1_n2738_n1819# XM3$1
XXM0_0 VSUBS VSUBS m1_n447_n1117# VSUBS XM0_0/a_n346_583# XM0
.ends

.subckt trimb d_4 d_1 d_0 d_2 d_3 n4 n1 n0 n2 n3 drain VSUBS
Xtrim_switch_0 d_1 n0 d_4 d_0 d_3 n2 n4 d_2 n1 n3 VSUBS trim_switch
.ends

.subckt XMl1 a_1362_n1100# a_1442_n880# a_1506_n1100# a_1224_n1284#
X0 a_1506_n1100# a_1442_n880# a_1362_n1100# a_1224_n1284# nfet_03v3 ad=0.44p pd=2.88u as=0.44p ps=2.88u w=1u l=0.28u
.ends

.subckt XM2$3 a_69_n911# w_n237_n1121# a_5_n691# a_n75_n911#
X0 a_69_n911# a_5_n691# a_n75_n911# w_n237_n1121# pfet_03v3 ad=0.44p pd=2.88u as=0.44p ps=2.88u w=1u l=0.28u
.ends

.subckt XMinp a_251_n1284# a_389_n1100# a_251_n788# a_469_n880# a_533_n1100#
X0 a_533_n1100# a_469_n880# a_389_n1100# a_251_n1284# nfet_03v3 ad=0.44p pd=2.88u as=0.44p ps=2.88u w=1u l=0.28u
.ends

.subckt comparator vdd outp outn vp vn trim3 trimb0 trimb3 diff ip in clkc trim4 trim2
+ trim1 trim0 trimb4 trimb2 vss trimb1
XXMinn_0 vss vn in vss diff XMinn
XXM1$3_0 in clkc vdd vdd XM1$3
Xtrim_0 in trim4 trim1 trim0 trim2 trim3 trim_0/n4 trim_0/n1 trim_0/n0 trim_0/n2 trim_0/n3
+ vss trim
XXMl4_0 outn outp vdd vdd XMl4
XXM4$3_0 clkc ip vdd vdd XM4$3
XXMl2_0 outp ip outn vss XMl2
XXM3$3_0 outp vdd clkc vdd XM3$3
XXMdiff_0 diff clkc vss clkc vss vss XMdiff
XXMl3_0 outp vdd outn vdd XMl3
Xtrimb_0 trimb4 trimb1 trimb0 trimb2 trimb3 trimb_0/n4 trimb_0/n1 trimb_0/n0 trimb_0/n2
+ trimb_0/n3 ip vss trimb
XXMl1_0 outn outp in vss XMl1
XXM2$3_0 outn vdd clkc vdd XM2$3
XXMinp_0 vss diff vss vp ip XMinp
.ends

.subckt cap_mim_2p0fF_RCWXT2$1 m4_n3120_n3000# m4_n3240_n3120#
X0 m4_n3120_n3000# m4_n3240_n3120# cap_mim_2f0_m4m5_noshield c_width=30u c_length=30u
.ends

.subckt mim_cap_30_30_flip cap_mim_2p0fF_RCWXT2_0/m4_n3240_n3120# cap_mim_2p0fF_RCWXT2_0/m4_n3120_n3000#
Xcap_mim_2p0fF_RCWXT2_0 cap_mim_2p0fF_RCWXT2_0/m4_n3120_n3000# cap_mim_2p0fF_RCWXT2_0/m4_n3240_n3120#
+ cap_mim_2p0fF_RCWXT2$1
.ends

.subckt cap_mim_2p0fF_RCWXT2 m4_n3120_n3000# m4_n3240_n3120#
X0 m4_n3120_n3000# m4_n3240_n3120# cap_mim_2f0_m4m5_noshield c_width=30u c_length=30u
.ends

.subckt mim_cap_30_30 cap_mim_2p0fF_RCWXT2_0/m4_n3240_n3120# cap_mim_2p0fF_RCWXT2_0/m4_n3120_n3000#
Xcap_mim_2p0fF_RCWXT2_0 cap_mim_2p0fF_RCWXT2_0/m4_n3120_n3000# cap_mim_2p0fF_RCWXT2_0/m4_n3240_n3120#
+ cap_mim_2p0fF_RCWXT2
.ends

.subckt mim_cap1 m5_n86730_51500# m5_n11730_51500# m5_n33870_51500# m5_86130_51500#
+ m5_14520_n66196# m5_n18870_51500# m5_44520_n66196# m5_n30480_n66196# m5_74520_n66196#
+ m5_33270_51500# m5_11130_51500# m5_n480_n66196# m5_n60480_n66196# m5_18270_51500#
+ m5_n90480_n66196# m5_104520_n66196# m5_n41730_51500# m5_n63870_51500# m5_n26730_51500#
+ m5_n48870_51500# m5_n3870_51500# m5_n105480_n66196# m5_n101730_51500# m5_63270_51500#
+ m5_n108870_51500# m5_48270_51500# m5_41130_51500# m5_29520_n66196# m5_26130_51500#
+ m5_n15480_n66196# m5_n93870_51500# m5_59520_n66196# m5_3270_51500# m5_n71730_51500#
+ m5_n78870_51500# m5_n45480_n66196# m5_n56730_51500# m5_89520_n66196# m5_n75480_n66196#
+ m5_93270_51500# m5_71130_51500# m5_101130_51500# m5_78270_51500# m5_56130_51500#
+ m5_108270_51500#
Xmim_cap_30_30_flip_233 m5_89520_n66196# mim_cap_30_30_flip_233/cap_mim_2p0fF_RCWXT2_0/m4_n3120_n3000#
+ mim_cap_30_30_flip
Xmim_cap_30_30_flip_222 m5_14520_n66196# mim_cap_30_30_flip_222/cap_mim_2p0fF_RCWXT2_0/m4_n3120_n3000#
+ mim_cap_30_30_flip
Xmim_cap_30_30_flip_200 m5_44520_n66196# mim_cap_30_30_flip_200/cap_mim_2p0fF_RCWXT2_0/m4_n3120_n3000#
+ mim_cap_30_30_flip
Xmim_cap_30_30_flip_211 m5_n480_n66196# mim_cap_30_30_flip_211/cap_mim_2p0fF_RCWXT2_0/m4_n3120_n3000#
+ mim_cap_30_30_flip
Xmim_cap_30_30_68 m5_n45480_n66196# mim_cap_30_30_68/cap_mim_2p0fF_RCWXT2_0/m4_n3120_n3000#
+ mim_cap_30_30
Xmim_cap_30_30_57 m5_n15480_n66196# mim_cap_30_30_57/cap_mim_2p0fF_RCWXT2_0/m4_n3120_n3000#
+ mim_cap_30_30
Xmim_cap_30_30_79 m5_n75480_n66196# mim_cap_30_30_79/cap_mim_2p0fF_RCWXT2_0/m4_n3120_n3000#
+ mim_cap_30_30
Xmim_cap_30_30_13 m5_44520_n66196# mim_cap_30_30_13/cap_mim_2p0fF_RCWXT2_0/m4_n3120_n3000#
+ mim_cap_30_30
Xmim_cap_30_30_24 m5_44520_n66196# mim_cap_30_30_24/cap_mim_2p0fF_RCWXT2_0/m4_n3120_n3000#
+ mim_cap_30_30
Xmim_cap_30_30_46 m5_89520_n66196# mim_cap_30_30_46/cap_mim_2p0fF_RCWXT2_0/m4_n3120_n3000#
+ mim_cap_30_30
Xmim_cap_30_30_35 m5_29520_n66196# mim_cap_30_30_35/cap_mim_2p0fF_RCWXT2_0/m4_n3120_n3000#
+ mim_cap_30_30
Xmim_cap_30_30_213 m5_29520_n66196# m5_26130_51500# mim_cap_30_30
Xmim_cap_30_30_224 m5_104520_n66196# mim_cap_30_30_224/cap_mim_2p0fF_RCWXT2_0/m4_n3120_n3000#
+ mim_cap_30_30
Xmim_cap_30_30_202 m5_29520_n66196# mim_cap_30_30_202/cap_mim_2p0fF_RCWXT2_0/m4_n3120_n3000#
+ mim_cap_30_30
Xmim_cap_30_30_235 m5_59520_n66196# mim_cap_30_30_235/cap_mim_2p0fF_RCWXT2_0/m4_n3120_n3000#
+ mim_cap_30_30
Xmim_cap_30_30_flip_212 m5_44520_n66196# m5_48270_51500# mim_cap_30_30_flip
Xmim_cap_30_30_flip_234 m5_74520_n66196# mim_cap_30_30_flip_234/cap_mim_2p0fF_RCWXT2_0/m4_n3120_n3000#
+ mim_cap_30_30_flip
Xmim_cap_30_30_flip_223 m5_n480_n66196# mim_cap_30_30_flip_223/cap_mim_2p0fF_RCWXT2_0/m4_n3120_n3000#
+ mim_cap_30_30_flip
Xmim_cap_30_30_flip_201 m5_29520_n66196# mim_cap_30_30_flip_201/cap_mim_2p0fF_RCWXT2_0/m4_n3120_n3000#
+ mim_cap_30_30_flip
Xmim_cap_30_30_58 m5_n30480_n66196# mim_cap_30_30_58/cap_mim_2p0fF_RCWXT2_0/m4_n3120_n3000#
+ mim_cap_30_30
Xmim_cap_30_30_69 m5_n30480_n66196# mim_cap_30_30_69/cap_mim_2p0fF_RCWXT2_0/m4_n3120_n3000#
+ mim_cap_30_30
Xmim_cap_30_30_14 m5_29520_n66196# mim_cap_30_30_14/cap_mim_2p0fF_RCWXT2_0/m4_n3120_n3000#
+ mim_cap_30_30
Xmim_cap_30_30_25 m5_29520_n66196# mim_cap_30_30_25/cap_mim_2p0fF_RCWXT2_0/m4_n3120_n3000#
+ mim_cap_30_30
Xmim_cap_30_30_47 m5_74520_n66196# mim_cap_30_30_47/cap_mim_2p0fF_RCWXT2_0/m4_n3120_n3000#
+ mim_cap_30_30
Xmim_cap_30_30_36 m5_104520_n66196# mim_cap_30_30_36/cap_mim_2p0fF_RCWXT2_0/m4_n3120_n3000#
+ mim_cap_30_30
Xmim_cap_30_30_214 m5_14520_n66196# m5_11130_51500# mim_cap_30_30
Xmim_cap_30_30_225 m5_89520_n66196# mim_cap_30_30_225/cap_mim_2p0fF_RCWXT2_0/m4_n3120_n3000#
+ mim_cap_30_30
Xmim_cap_30_30_203 m5_14520_n66196# mim_cap_30_30_203/cap_mim_2p0fF_RCWXT2_0/m4_n3120_n3000#
+ mim_cap_30_30
Xmim_cap_30_30_236 m5_59520_n66196# mim_cap_30_30_236/cap_mim_2p0fF_RCWXT2_0/m4_n3120_n3000#
+ mim_cap_30_30
Xmim_cap_30_30_flip_224 m5_104520_n66196# m5_108270_51500# mim_cap_30_30_flip
Xmim_cap_30_30_flip_213 m5_29520_n66196# m5_33270_51500# mim_cap_30_30_flip
Xmim_cap_30_30_flip_235 m5_59520_n66196# mim_cap_30_30_flip_235/cap_mim_2p0fF_RCWXT2_0/m4_n3120_n3000#
+ mim_cap_30_30_flip
Xmim_cap_30_30_flip_202 m5_14520_n66196# mim_cap_30_30_flip_202/cap_mim_2p0fF_RCWXT2_0/m4_n3120_n3000#
+ mim_cap_30_30_flip
Xmim_cap_30_30_59 m5_n45480_n66196# mim_cap_30_30_59/cap_mim_2p0fF_RCWXT2_0/m4_n3120_n3000#
+ mim_cap_30_30
Xmim_cap_30_30_15 m5_14520_n66196# mim_cap_30_30_15/cap_mim_2p0fF_RCWXT2_0/m4_n3120_n3000#
+ mim_cap_30_30
Xmim_cap_30_30_48 m5_59520_n66196# mim_cap_30_30_48/cap_mim_2p0fF_RCWXT2_0/m4_n3120_n3000#
+ mim_cap_30_30
Xmim_cap_30_30_26 m5_14520_n66196# mim_cap_30_30_26/cap_mim_2p0fF_RCWXT2_0/m4_n3120_n3000#
+ mim_cap_30_30
Xmim_cap_30_30_37 m5_104520_n66196# mim_cap_30_30_37/cap_mim_2p0fF_RCWXT2_0/m4_n3120_n3000#
+ mim_cap_30_30
Xmim_cap_30_30_226 m5_74520_n66196# mim_cap_30_30_226/cap_mim_2p0fF_RCWXT2_0/m4_n3120_n3000#
+ mim_cap_30_30
Xmim_cap_30_30_204 m5_14520_n66196# mim_cap_30_30_204/cap_mim_2p0fF_RCWXT2_0/m4_n3120_n3000#
+ mim_cap_30_30
Xmim_cap_30_30_237 m5_59520_n66196# mim_cap_30_30_237/cap_mim_2p0fF_RCWXT2_0/m4_n3120_n3000#
+ mim_cap_30_30
Xmim_cap_30_30_215 m5_44520_n66196# mim_cap_30_30_215/cap_mim_2p0fF_RCWXT2_0/m4_n3120_n3000#
+ mim_cap_30_30
Xmim_cap_30_30_flip_225 m5_89520_n66196# m5_93270_51500# mim_cap_30_30_flip
Xmim_cap_30_30_flip_214 m5_14520_n66196# m5_18270_51500# mim_cap_30_30_flip
Xmim_cap_30_30_flip_236 m5_104520_n66196# mim_cap_30_30_flip_236/cap_mim_2p0fF_RCWXT2_0/m4_n3120_n3000#
+ mim_cap_30_30_flip
Xmim_cap_30_30_flip_203 m5_n480_n66196# mim_cap_30_30_flip_203/cap_mim_2p0fF_RCWXT2_0/m4_n3120_n3000#
+ mim_cap_30_30_flip
Xmim_cap_30_30_16 m5_29520_n66196# mim_cap_30_30_16/cap_mim_2p0fF_RCWXT2_0/m4_n3120_n3000#
+ mim_cap_30_30
Xmim_cap_30_30_49 m5_59520_n66196# mim_cap_30_30_49/cap_mim_2p0fF_RCWXT2_0/m4_n3120_n3000#
+ mim_cap_30_30
Xmim_cap_30_30_38 m5_89520_n66196# mim_cap_30_30_38/cap_mim_2p0fF_RCWXT2_0/m4_n3120_n3000#
+ mim_cap_30_30