* NGSPICE file created from saradc.ext - technology: gf180mcuD

.subckt XM2_latch_x4 G D S
X0 S G D S pfet_03v3 ad=0.44p pd=2.88u as=0.44p ps=2.88u w=1u l=0.28u
.ends

.subckt XM1_latch_x4 G D S
X0 D G S S nfet_03v3 ad=0.44p pd=2.88u as=0.44p ps=2.88u w=1u l=0.28u
.ends

.subckt x4_latch vdd vss out in
XXM2_latch_x4_0 in out vdd XM2_latch_x4
XXM1_latch_x4_0 in out vss XM1_latch_x4
.ends

.subckt XM2_latch_x3 G D S
X0 S G D S pfet_03v3 ad=0.44p pd=2.88u as=0.44p ps=2.88u w=1u l=0.28u
.ends

.subckt XM1_latch_x3 G D S
X0 D G S S nfet_03v3 ad=0.44p pd=2.88u as=0.44p ps=2.88u w=1u l=0.28u
.ends

.subckt x3_latch vdd vss out in
XXM2_latch_x3_0 in out vdd XM2_latch_x3
XXM1_latch_x3_0 in out vss XM1_latch_x3
.ends

.subckt XM4_latch G D a_258_n1293# S
X0 S G D S nfet_03v3 ad=0.44p pd=2.88u as=0.44p ps=2.88u w=1u l=0.28u
.ends

.subckt XM2_latch_x2 G D S
X0 S G D S pfet_03v3 ad=0.44p pd=2.88u as=0.44p ps=2.88u w=1u l=0.28u
.ends

.subckt XM1_latch_x2 G D S
X0 D G S S nfet_03v3 ad=0.44p pd=2.88u as=0.44p ps=2.88u w=1u l=0.28u
.ends

.subckt x2_latch vdd vss out in
XXM2_latch_x2_0 in out vdd XM2_latch_x2
XXM1_latch_x2_0 in out vss XM1_latch_x2
.ends

.subckt XM3_latch G D a_n349_n1268# S
X0 D G S S nfet_03v3 ad=0.44p pd=2.88u as=0.44p ps=2.88u w=1u l=0.28u
.ends

.subckt XM2_latch_x1 G D S
X0 S G D S pfet_03v3 ad=0.44p pd=2.88u as=0.44p ps=2.88u w=1u l=0.28u
.ends

.subckt XM1_latch_x1 G D S a_n254_114#
X0 D G S S nfet_03v3 ad=0.44p pd=2.88u as=0.44p ps=2.88u w=1u l=0.28u
.ends

.subckt x1_latch vss out in XM1_latch_x1_0/a_n254_114# vdd
XXM2_latch_x1_0 in out vdd XM2_latch_x1
XXM1_latch_x1_0 in out vss XM1_latch_x1_0/a_n254_114# XM1_latch_x1
.ends

.subckt latch tutyuu1 tutyuu2 Qn Q S R vdd vss
Xx4_latch_0 vdd vss tutyuu1 S x4_latch
Xx3_latch_0 vdd vss tutyuu2 R x3_latch
XXM4_latch_0 tutyuu2 Q vss vss XM4_latch
Xx2_latch_0 vdd vss Qn Q x2_latch
XXM3_latch_0 tutyuu1 Qn vss vss XM3_latch
Xx1_latch_0 vss Q Qn vss vdd x1_latch
.ends

.subckt XM2_buffer_inv2 G D S
X0 S G D S pfet_03v3 ad=0.44p pd=2.88u as=0.44p ps=2.88u w=1u l=0.28u
.ends

.subckt XM1_buffer_inv2 G D S
X0 D G S S nfet_03v3 ad=0.44p pd=2.88u as=0.44p ps=2.88u w=1u l=0.28u
.ends

.subckt buffer_inv2 vdd vss out in
XXM2_buffer_inv2_0 in out vdd XM2_buffer_inv2
XXM1_buffer_inv2_0 in out vss XM1_buffer_inv2
.ends

.subckt XM1_buffer_inv1 G D S
X0 D G S S nfet_03v3 ad=0.44p pd=2.88u as=0.44p ps=2.88u w=1u l=0.28u
.ends

.subckt buffer_inv1 vdd vss out in
XXM1_buffer_inv1_0 in out vss XM1_buffer_inv1
.ends

.subckt buffer middle out in vss vdd
Xbuffer_inv2_0 vdd vss out middle buffer_inv2
Xbuffer_inv1_0 vdd vss middle in buffer_inv1
.ends

.subckt inv_p VNW VPW VSS ZN I VDD VSUBS
X0 VDD I ZN VNW pfet_06v0 ad=1.2078p pd=4.42u as=0.4575p ps=1.97u w=1.22u l=0.5u
X1 ZN I VSS VSUBS nfet_06v0 ad=0.2255p pd=1.37u as=0.5084p ps=2.88u w=0.82u l=0.6u
X2 VSS I ZN VSUBS nfet_06v0 ad=0.8118p pd=3.62u as=0.2255p ps=1.37u w=0.82u l=0.6u
X3 ZN I VDD VNW pfet_06v0 ad=0.4575p pd=1.97u as=0.7564p ps=3.68u w=1.22u l=0.5u
.ends

.subckt inv_renketu_p inv_p_7/I inv_p_9/ZN inv_p_6/ZN inv_p_3/ZN inv_p_0/ZN inv_p_0/I
+ inv_p_10/I inv_p_4/I inv_p_8/ZN inv_p_2/ZN inv_p_5/ZN inv_p_6/I inv_p_2/I inv_p_10/ZN
+ inv_p_8/I inv_p_1/I inv_p_9/I inv_p_7/ZN inv_p_4/ZN inv_p_1/ZN inv_p_3/I inv_p_5/I
+ vss vdd
Xinv_p_0 vdd inv_p_0/VPW vss inv_p_0/ZN inv_p_0/I vdd vss inv_p
Xinv_p_1 vdd inv_p_1/VPW vss inv_p_1/ZN inv_p_1/I vdd vss inv_p
Xinv_p_2 vdd inv_p_2/VPW vss inv_p_2/ZN inv_p_2/I vdd vss inv_p
Xinv_p_3 vdd inv_p_3/VPW vss inv_p_3/ZN inv_p_3/I vdd vss inv_p
Xinv_p_4 vdd inv_p_4/VPW vss inv_p_4/ZN inv_p_4/I vdd vss inv_p
Xinv_p_5 vdd inv_p_5/VPW vss inv_p_5/ZN inv_p_5/I vdd vss inv_p
Xinv_p_6 vdd inv_p_6/VPW vss inv_p_6/ZN inv_p_6/I vdd vss inv_p
Xinv_p_7 vdd inv_p_7/VPW vss inv_p_7/ZN inv_p_7/I vdd vss inv_p
Xinv_p_8 vdd inv_p_8/VPW vss inv_p_8/ZN inv_p_8/I vdd vss inv_p
Xinv_p_9 vdd inv_p_9/VPW vss inv_p_9/ZN inv_p_9/I vdd vss inv_p
Xinv_p_10 vdd inv_p_10/VPW vss inv_p_10/ZN inv_p_10/I vdd vss inv_p
.ends

.subckt XM1_bs G D a_811_3903# S a_1507_3903#
X0 D G S a_811_3903# nfet_03v3 ad=0.88p pd=4.88u as=0.88p ps=4.88u w=2u l=0.5u
.ends

.subckt XM4_bs G D S
X0 D G S S pfet_03v3 ad=0.88p pd=4.88u as=0.88p ps=4.88u w=2u l=0.5u
.ends

.subckt XMs1_bs G D S a_n2855_n800#
X0 D G S a_n2855_n800# nfet_03v3 ad=0.88p pd=4.88u as=0.88p ps=4.88u w=2u l=0.5u
.ends

.subckt cap_mim_2p0fF_8JNR63 m4_n3440_n548# m4_n3800_n668#
X0 m4_n3440_n548# m4_n3800_n668# cap_mim_2f0fF c_width=8u c_length=8u
.ends

.subckt sw_cap_unit in out
Xcap_mim_2p0fF_8JNR63_0 out in cap_mim_2p0fF_8JNR63
.ends

.subckt sw_cap out in
Xsw_cap_unit_0 in out sw_cap_unit
Xsw_cap_unit_1 in out sw_cap_unit
Xsw_cap_unit_2 in out sw_cap_unit
Xsw_cap_unit_3 in out sw_cap_unit
Xsw_cap_unit_4 in out sw_cap_unit
.ends

.subckt XM3_bs G D S
X0 S G D S pfet_03v3 ad=0.88p pd=4.88u as=0.88p ps=4.88u w=2u l=0.5u
.ends

.subckt XMs_bs G D S a_846_4542#
X0 S G D a_846_4542# nfet_03v3 ad=0.88p pd=4.88u as=0.88p ps=4.88u w=2u l=0.5u
.ends

.subckt XM1_bs_inv G D S
X0 D G S S nfet_03v3 ad=0.44p pd=2.88u as=0.44p ps=2.88u w=1u l=0.28u
.ends

.subckt XM2_bs_inv G D S
X0 S G D S pfet_03v3 ad=0.44p pd=2.88u as=0.44p ps=2.88u w=1u l=0.28u
.ends

.subckt bs_inv out in vdd vss
XXM1_bs_inv_0 in out vss XM1_bs_inv
XXM2_bs_inv_0 in out vdd XM2_bs_inv
.ends

.subckt XM2_bs G D a_811_3460# a_1507_3460# S
X0 S G D a_811_3460# nfet_03v3 ad=0.88p pd=4.88u as=0.88p ps=4.88u w=2u l=0.5u
.ends

.subckt XMs2_bs G D a_n3988_469# S a_n3988_1165#
X0 D G S a_n3988_469# nfet_03v3 ad=0.88p pd=4.88u as=0.88p ps=4.88u w=2u l=0.5u
.ends

.subckt bootstrapped_sw_p vbsl vbsh in vss en enb vs vg vdd out
XXM1_bs_0 vg vbsl vss in vss XM1_bs
XXM4_bs_0 enb vg vbsh XM4_bs
XXMs1_bs_0 vdd vs vg vss XMs1_bs
Xsw_cap_0 vbsh vbsl sw_cap
XXM3_bs_0 vg vdd vbsh XM3_bs
XXMs_bs_0 vg out in vss XMs_bs
Xbs_inv_0 enb en vdd vss bs_inv
XXM2_bs_0 enb vbsl vss vss vss XM2_bs
XXMs2_bs_0 enb vss vss vs vss XMs2_bs
.ends

.subckt dacp dum ctl7 ctl8 ctl9 ctl10 in out sample ctl2 ctl1 ctl4 ctl6 ctl3 ctl5
+ vdd vss
Xinv_renketu_p_0 ctl6 carray_p_0/n8 carray_p_0/n5 carray_p_0/n1 carray_p_0/ndum dum
+ ctl9 ctl3 carray_p_0/n7 carray_p_0/n0 carray_p_0/n4 ctl5 ctl10 carray_p_0/n9 ctl7
+ ctl2 ctl8 carray_p_0/n6 carray_p_0/n3 carray_p_0/n2 ctl1 ctl4 vss vdd inv_renketu_p
Xbootstrapped_sw_p_0 bootstrapped_sw_p_0/vbsl bootstrapped_sw_p_0/vbsh in vss sample
+ bootstrapped_sw_p_0/enb bootstrapped_sw_p_0/vs bootstrapped_sw_p_0/vg vdd out bootstrapped_sw_p
.ends

.subckt XM0_trim_right G D a_n484_399# a_n484_895# S
X0 S G D a_n484_399# nfet_03v3 ad=0.44p pd=2.88u as=0.44p ps=2.88u w=1u l=0.28u
.ends

.subckt XM1_trim_right G D a_n484_399# a_n484_895# S
X0 D G S a_n484_399# nfet_03v3 ad=0.44p pd=2.88u as=0.44p ps=2.88u w=1u l=0.28u
.ends

.subckt XM2_trim_right G D a_n375_n620# a_n375_n1116# S
X0 D G S a_n375_n1116# nfet_03v3 ad=0.44p pd=2.88u as=0.26p ps=1.52u w=1u l=0.28u
X1 S G D a_n375_n1116# nfet_03v3 ad=0.26p pd=1.52u as=0.44p ps=2.88u w=1u l=0.28u
.ends

.subckt XM3_trim_right G D a_n778_n975# S
X0 D G S a_n778_n975# nfet_03v3 ad=0.26p pd=1.52u as=0.26p ps=1.52u w=1u l=0.28u
X1 S G D a_n778_n975# nfet_03v3 ad=0.26p pd=1.52u as=0.26p ps=1.52u w=1u l=0.28u
X2 D G S a_n778_n975# nfet_03v3 ad=0.44p pd=2.88u as=0.26p ps=1.52u w=1u l=0.28u
X3 S G D a_n778_n975# nfet_03v3 ad=0.26p pd=1.52u as=0.44p ps=2.88u w=1u l=0.28u
.ends

.subckt XM4_trim_right G D a_1072_n1100# S
X0 S G D a_1072_n1100# nfet_03v3 ad=0.26p pd=1.52u as=0.26p ps=1.52u w=1u l=0.28u
X1 S G D a_1072_n1100# nfet_03v3 ad=0.26p pd=1.52u as=0.26p ps=1.52u w=1u l=0.28u
X2 D G S a_1072_n1100# nfet_03v3 ad=0.26p pd=1.52u as=0.26p ps=1.52u w=1u l=0.28u
X3 S G D a_1072_n1100# nfet_03v3 ad=0.26p pd=1.52u as=0.26p ps=1.52u w=1u l=0.28u
X4 S G D a_1072_n1100# nfet_03v3 ad=0.44p pd=2.88u as=0.26p ps=1.52u w=1u l=0.28u
X5 D G S a_1072_n1100# nfet_03v3 ad=0.26p pd=1.52u as=0.44p ps=2.88u w=1u l=0.28u
X6 D G S a_1072_n1100# nfet_03v3 ad=0.26p pd=1.52u as=0.26p ps=1.52u w=1u l=0.28u
X7 D G S a_1072_n1100# nfet_03v3 ad=0.26p pd=1.52u as=0.26p ps=1.52u w=1u l=0.28u
.ends

.subckt trim_switch_right XM3_trim_right_0/D XM0_trim_right_0/G XM4_trim_right_0/G
+ XM0_trim_right_0/D XM4_trim_right_0/D XM1_trim_right_0/G XM1_trim_right_0/D XM2_trim_right_0/G
+ XM2_trim_right_0/D XM3_trim_right_0/G VSUBS
XXM0_trim_right_0 XM0_trim_right_0/G XM0_trim_right_0/D VSUBS VSUBS VSUBS XM0_trim_right
XXM1_trim_right_0 XM1_trim_right_0/G XM1_trim_right_0/D VSUBS VSUBS VSUBS XM1_trim_right
XXM2_trim_right_0 XM2_trim_right_0/G XM2_trim_right_0/D VSUBS VSUBS VSUBS XM2_trim_right
XXM3_trim_right_0 XM3_trim_right_0/G XM3_trim_right_0/D VSUBS VSUBS XM3_trim_right
XXM4_trim_right_0 XM4_trim_right_0/G XM4_trim_right_0/D VSUBS VSUBS XM4_trim_right
.ends

.subckt trim_right d_4 d_1 d_0 d_2 d_3 VSUBS ip
Xtrim_switch_right_0 trim_switch_right_0/XM3_trim_right_0/D d_0 d_4 trim_switch_right_0/XM0_trim_right_0/D
+ trim_switch_right_0/XM4_trim_right_0/D d_1 trim_switch_right_0/XM1_trim_right_0/D
+ d_2 trim_switch_right_0/XM2_trim_right_0/D d_3 VSUBS trim_switch_right
.ends

.subckt XMdiff_com G D a_439_n1281# S
X0 D G S a_439_n1281# nfet_03v3 ad=0.26p pd=1.52u as=0.44p ps=2.88u w=1u l=0.28u
X1 S G D a_439_n1281# nfet_03v3 ad=0.44p pd=2.88u as=0.26p ps=1.52u w=1u l=0.28u
.ends

.subckt XMinp_com a_251_n1284# G D a_251_n788# S
X0 D G S a_251_n1284# nfet_03v3 ad=0.44p pd=2.88u as=0.44p ps=2.88u w=1u l=0.28u
.ends

.subckt XMl4_com G D S w_n198_790#
X0 D G S w_n198_790# pfet_03v3 ad=0.44p pd=2.88u as=0.44p ps=2.88u w=1u l=0.28u
.ends

.subckt XM4_com G D w_1022_790# S
X0 D G S w_1022_790# pfet_03v3 ad=0.44p pd=2.88u as=0.44p ps=2.88u w=1u l=0.28u
.ends

.subckt XMinn_com G a_719_n1284# D S a_719_n788#
X0 S G D a_719_n1284# nfet_03v3 ad=0.44p pd=2.88u as=0.44p ps=2.88u w=1u l=0.28u
.ends

.subckt XMl3_com G D w_n634_790# S
X0 S G D w_n634_790# pfet_03v3 ad=0.44p pd=2.88u as=0.44p ps=2.88u w=1u l=0.28u
.ends

.subckt XM3_com G D w_n509_n1092# S
X0 S G D w_n509_n1092# pfet_03v3 ad=0.44p pd=2.88u as=0.44p ps=2.88u w=1u l=0.28u
.ends

.subckt XM4_trim_left G D a_1072_n1100# S
X0 S G D a_1072_n1100# nfet_03v3 ad=0.26p pd=1.52u as=0.26p ps=1.52u w=1u l=0.28u
X1 S G D a_1072_n1100# nfet_03v3 ad=0.26p pd=1.52u as=0.26p ps=1.52u w=1u l=0.28u
X2 D G S a_1072_n1100# nfet_03v3 ad=0.26p pd=1.52u as=0.26p ps=1.52u w=1u l=0.28u
X3 S G D a_1072_n1100# nfet_03v3 ad=0.26p pd=1.52u as=0.26p ps=1.52u w=1u l=0.28u
X4 S G D a_1072_n1100# nfet_03v3 ad=0.44p pd=2.88u as=0.26p ps=1.52u w=1u l=0.28u
X5 D G S a_1072_n1100# nfet_03v3 ad=0.26p pd=1.52u as=0.44p ps=2.88u w=1u l=0.28u
X6 D G S a_1072_n1100# nfet_03v3 ad=0.26p pd=1.52u as=0.26p ps=1.52u w=1u l=0.28u
X7 D G S a_1072_n1100# nfet_03v3 ad=0.26p pd=1.52u as=0.26p ps=1.52u w=1u l=0.28u
.ends

.subckt XM3_trim_left G D a_n778_n975# S
X0 D G S a_n778_n975# nfet_03v3 ad=0.26p pd=1.52u as=0.26p ps=1.52u w=1u l=0.28u
X1 S G D a_n778_n975# nfet_03v3 ad=0.26p pd=1.52u as=0.26p ps=1.52u w=1u l=0.28u
X2 D G S a_n778_n975# nfet_03v3 ad=0.44p pd=2.88u as=0.26p ps=1.52u w=1u l=0.28u
X3 S G D a_n778_n975# nfet_03v3 ad=0.26p pd=1.52u as=0.44p ps=2.88u w=1u l=0.28u
.ends

.subckt XM2_trim_left G D a_n375_n620# a_n375_n1116# S
X0 D G S a_n375_n1116# nfet_03v3 ad=0.44p pd=2.88u as=0.26p ps=1.52u w=1u l=0.28u
X1 S G D a_n375_n1116# nfet_03v3 ad=0.26p pd=1.52u as=0.44p ps=2.88u w=1u l=0.28u
.ends

.subckt XM1_trim_left G D a_n484_399# a_n484_895# S
X0 D G S a_n484_399# nfet_03v3 ad=0.44p pd=2.88u as=0.44p ps=2.88u w=1u l=0.28u
.ends

.subckt XM0_trim_left G D a_n484_399# a_n484_895# S
X0 S G D a_n484_399# nfet_03v3 ad=0.44p pd=2.88u as=0.44p ps=2.88u w=1u l=0.28u
.ends

.subckt trim_switch_left n1 n0 n2 n3 XM0_trim_left_0/G XM3_trim_left_0/G XM1_trim_left_0/G
+ XM4_trim_left_0/G n4 XM2_trim_left_0/G VSUBS
XXM4_trim_left_0 XM4_trim_left_0/G n4 VSUBS VSUBS XM4_trim_left
XXM3_trim_left_0 XM3_trim_left_0/G n3 VSUBS VSUBS XM3_trim_left
XXM2_trim_left_0 XM2_trim_left_0/G n2 VSUBS VSUBS VSUBS XM2_trim_left
XXM1_trim_left_0 XM1_trim_left_0/G n1 VSUBS VSUBS VSUBS XM1_trim_left
XXM0_trim_left_0 XM0_trim_left_0/G n0 VSUBS VSUBS VSUBS XM0_trim_left
.ends

.subckt trim_left in d_4 d_1 d_0 d_2 d_3 VSUBS
Xtrim_switch_left_0 trim_switch_left_0/n1 trim_switch_left_0/n0 trim_switch_left_0/n2
+ trim_switch_left_0/n3 d_0 d_3 d_1 d_4 trim_switch_left_0/n4 d_2 VSUBS trim_switch_left
.ends

.subckt XMl2_com G D S a_n249_n1284#
X0 D G S a_n249_n1284# nfet_03v3 ad=0.44p pd=2.88u as=0.44p ps=2.88u w=1u l=0.28u
.ends

.subckt XM2_com G D w_n237_n1121# S
X0 D G S w_n237_n1121# pfet_03v3 ad=0.44p pd=2.88u as=0.44p ps=2.88u w=1u l=0.28u
.ends

.subckt XM1_com G D S w_n1578_790#
X0 S G D w_n1578_790# pfet_03v3 ad=0.44p pd=2.88u as=0.44p ps=2.88u w=1u l=0.28u
.ends

.subckt XMl1_com G D a_1224_n1284# S
X0 S G D a_1224_n1284# nfet_03v3 ad=0.44p pd=2.88u as=0.44p ps=2.88u w=1u l=0.28u
.ends

.subckt comparator vdd outp outn vp vn trim4 trim1 trim0 trim2 trim3 trimb4 trimb1
+ trimb0 trimb2 trimb3 diff in ip clkc vss
Xtrim_right_0 trimb4 trimb1 trimb0 trimb2 trimb3 vss ip trim_right
XXMdiff_com_0 clkc diff vss vss XMdiff_com
XXMinp_com_0 vss vp ip vss diff XMinp_com
XXMl4_com_0 outn outp vdd vdd XMl4_com
XXM4_com_0 clkc ip vdd vdd XM4_com
XXMinn_com_0 vn vss in diff vss XMinn_com
XXMl3_com_0 outp outn vdd vdd XMl3_com
XXM3_com_0 clkc outp vdd vdd XM3_com
Xtrim_left_0 in trim4 trim1 trim0 trim2 trim3 vss trim_left
XXMl2_com_0 outn outp ip vss XMl2_com
XXM2_com_0 clkc outn vdd vdd XM2_com
XXM1_com_0 clkc in vdd vdd XM1_com
XXMl1_com_0 outp outn vss in XMl1_com
.ends

.subckt inv_n VNW VPW VSS ZN I VDD VSUBS
X0 VDD I ZN VNW pfet_06v0 ad=1.2078p pd=4.42u as=0.4575p ps=1.97u w=1.22u l=0.5u
X1 ZN I VSS VSUBS nfet_06v0 ad=0.2255p pd=1.37u as=0.5084p ps=2.88u w=0.82u l=0.6u
X2 VSS I ZN VSUBS nfet_06v0 ad=0.8118p pd=3.62u as=0.2255p ps=1.37u w=0.82u l=0.6u
X3 ZN I VDD VNW pfet_06v0 ad=0.4575p pd=1.97u as=0.7564p ps=3.68u w=1.22u l=0.5u
.ends

.subckt inv_renketu_n inv_n_8/I inv_n_1/I inv_n_4/ZN inv_n_1/ZN inv_n_3/I inv_n_5/I
+ inv_n_7/I inv_n_9/ZN inv_n_6/ZN inv_n_10/ZN inv_n_3/ZN inv_n_0/ZN inv_n_0/I inv_n_10/I
+ inv_n_2/I inv_n_9/I inv_n_4/I vdd inv_n_7/ZN inv_n_8/ZN inv_n_5/ZN inv_n_6/I inv_n_2/ZN
+ vss
Xinv_n_0 vdd inv_n_0/VPW vss inv_n_0/ZN inv_n_0/I vdd vss inv_n
Xinv_n_1 vdd inv_n_1/VPW vss inv_n_1/ZN inv_n_1/I vdd vss inv_n
Xinv_n_2 vdd inv_n_2/VPW vss inv_n_2/ZN inv_n_2/I vdd vss inv_n
Xinv_n_3 vdd inv_n_3/VPW vss inv_n_3/ZN inv_n_3/I vdd vss inv_n
Xinv_n_4 vdd inv_n_4/VPW vss inv_n_4/ZN inv_n_4/I vdd vss inv_n
Xinv_n_5 vdd inv_n_5/VPW vss inv_n_5/ZN inv_n_5/I vdd vss inv_n
Xinv_n_6 vdd inv_n_6/VPW vss inv_n_6/ZN inv_n_6/I vdd vss inv_n
Xinv_n_7 vdd inv_n_7/VPW vss inv_n_7/ZN inv_n_7/I vdd vss inv_n
Xinv_n_8 vdd inv_n_8/VPW vss inv_n_8/ZN inv_n_8/I vdd vss inv_n
Xinv_n_9 vdd inv_n_9/VPW vss inv_n_9/ZN inv_n_9/I vdd vss inv_n
Xinv_n_10 vdd inv_n_10/VPW vss inv_n_10/ZN inv_n_10/I vdd vss inv_n
.ends

.subckt XM1_bs$1 G D a_811_3903# S a_1507_3903#
X0 D G S a_811_3903# nfet_03v3 ad=0.88p pd=4.88u as=0.88p ps=4.88u w=2u l=0.5u
.ends

.subckt XMs1_bs$1 G D S a_n2855_n800#
X0 D G S a_n2855_n800# nfet_03v3 ad=0.88p pd=4.88u as=0.88p ps=4.88u w=2u l=0.5u
.ends

.subckt XM2_bs$1 G D a_811_3460# a_1507_3460# S
X0 S G D a_811_3460# nfet_03v3 ad=0.88p pd=4.88u as=0.88p ps=4.88u w=2u l=0.5u
.ends

.subckt XMs2_bs$1 G D a_n3988_469# S a_n3988_1165#
X0 D G S a_n3988_469# nfet_03v3 ad=0.88p pd=4.88u as=0.88p ps=4.88u w=2u l=0.5u
.ends

.subckt XM3_bs$1 G D S
X0 S G D S pfet_03v3 ad=0.88p pd=4.88u as=0.88p ps=4.88u w=2u l=0.5u
.ends

.subckt cap_mim_2p0fF_8JNR63$1 m4_n3440_n548# m4_n3800_n668#
X0 m4_n3440_n548# m4_n3800_n668# cap_mim_2f0fF c_width=8u c_length=8u
.ends

.subckt sw_cap_unit$1 in out
Xcap_mim_2p0fF_8JNR63_0 out in cap_mim_2p0fF_8JNR63$1
.ends

.subckt sw_cap$1 out in
Xsw_cap_unit$1_0 in out sw_cap_unit$1
Xsw_cap_unit$1_1 in out sw_cap_unit$1
Xsw_cap_unit$1_2 in out sw_cap_unit$1
Xsw_cap_unit$1_3 in out sw_cap_unit$1
Xsw_cap_unit$1_4 in out sw_cap_unit$1
.ends

.subckt XM2_bs_inv$1 G D S
X0 S G D S pfet_03v3 ad=0.44p pd=2.88u as=0.44p ps=2.88u w=1u l=0.28u
.ends

.subckt XM1_bs_inv$1 G D S
X0 D G S S nfet_03v3 ad=0.44p pd=2.88u as=0.44p ps=2.88u w=1u l=0.28u
.ends

.subckt bs_inv$1 out in vdd vss
XXM2_bs_inv$1_0 in out vdd XM2_bs_inv$1
XXM1_bs_inv$1_0 in out vss XM1_bs_inv$1
.ends

.subckt XM4_bs$1 G D S
X0 D G S S pfet_03v3 ad=0.88p pd=4.88u as=0.88p ps=4.88u w=2u l=0.5u
.ends

.subckt XMs_bs$1 G D S a_846_4542#
X0 S G D a_846_4542# nfet_03v3 ad=0.88p pd=4.88u as=0.88p ps=4.88u w=2u l=0.5u
.ends

.subckt bootstrapped_sw_n vbsl vbsh in vss en enb vs vg out vdd
XXM1_bs$1_0 vg vbsl vss in vss XM1_bs$1
XXMs1_bs$1_0 vdd vs vg vss XMs1_bs$1
XXM2_bs$1_0 enb vbsl vss vss vss XM2_bs$1
XXMs2_bs$1_0 enb vss vss vs vss XMs2_bs$1
XXM3_bs$1_0 vg vdd vbsh XM3_bs$1
Xsw_cap$1_0 vbsh vbsl sw_cap$1
Xbs_inv$1_0 enb en vdd vss bs_inv$1
XXM4_bs$1_0 enb vg vbsh XM4_bs$1
XXMs_bs$1_0 vg out in vss XMs_bs$1
.ends

.subckt dacn dum ctl1 ctl2 ctl3 ctl4 ctl5 ctl6 ctl7 ctl8 ctl9 ctl10 in out sample
+ vdd vss
Xinv_renketu_n_0 ctl7 ctl2 carray_n_0/n3 carray_n_0/n2 ctl1 ctl4 ctl6 carray_n_0/n8
+ carray_n_0/n5 carray_n_0/n9 carray_n_0/n1 carray_n_0/ndum dum ctl9 ctl10 ctl8 ctl3
+ vdd carray_n_0/n6 carray_n_0/n7 carray_n_0/n4 ctl5 carray_n_0/n0 vss inv_renketu_n
Xbootstrapped_sw_n_0 bootstrapped_sw_n_0/vbsl bootstrapped_sw_n_0/vbsh in vss sample
+ bootstrapped_sw_n_0/enb bootstrapped_sw_n_0/vs bootstrapped_sw_n_0/vg out vdd bootstrapped_sw_n
.ends

.subckt cap_mim_2p0fF_RCWXT2$1 m4_n3120_n3000# m4_n3240_n3120#
X0 m4_n3120_n3000# m4_n3240_n3120# cap_mim_2f0fF c_width=30u c_length=30u
.ends

.subckt mim_cap_30_30_flip cap_mim_2p0fF_RCWXT2_0/m4_n3240_n3120# cap_mim_2p0fF_RCWXT2_0/m4_n3120_n3000#
Xcap_mim_2p0fF_RCWXT2_0 cap_mim_2p0fF_RCWXT2_0/m4_n3120_n3000# cap_mim_2p0fF_RCWXT2_0/m4_n3240_n3120#
+ cap_mim_2p0fF_RCWXT2$1
.ends

.subckt cap_mim_2p0fF_RCWXT2 m4_n3120_n3000# m4_n3240_n3120#
X0 m4_n3120_n3000# m4_n3240_n3120# cap_mim_2f0fF c_width=30u c_length=30u
.ends

.subckt mim_cap_30_30 cap_mim_2p0fF_RCWXT2_0/m4_n3240_n3120# cap_mim_2p0fF_RCWXT2_0/m4_n3120_n3000#
Xcap_mim_2p0fF_RCWXT2_0 cap_mim_2p0fF_RCWXT2_0/m4_n3120_n3000# cap_mim_2p0fF_RCWXT2_0/m4_n3240_n3120#
+ cap_mim_2p0fF_RCWXT2
.ends

.subckt mim_cap1 vss vdd
Xmim_cap_30_30_flip_233 vss vdd mim_cap_30_30_flip
Xmim_cap_30_30_flip_222 vss vdd mim_cap_30_30_flip
Xmim_cap_30_30_flip_200 vss vdd mim_cap_30_30_flip
Xmim_cap_30_30_flip_211 vss vdd mim_cap_30_30_flip
Xmim_cap_30_30_68 vss vdd mim_cap_30_30
Xmim_cap_30_30_57 vss vdd mim_cap_30_30
Xmim_cap_30_30_79 vss vdd mim_cap_30_30
Xmim_cap_30_30_13 vss vdd mim_cap_30_30
Xmim_cap_30_30_24 vss vdd mim_cap_30_30
Xmim_cap_30_30_46 vss vdd mim_cap_30_30
Xmim_cap_30_30_35 vss vdd mim_cap_30_30
Xmim_cap_30_30_213 vss vdd mim_cap_30_30
Xmim_cap_30_30_224 vss vdd mim_cap_30_30
Xmim_cap_30_30_202 vss vdd mim_cap_30_30
Xmim_cap_30_30_235 vss vdd mim_cap_30_30
Xmim_cap_30_30_flip_212 vss vdd mim_cap_30_30_flip
Xmim_cap_30_30_flip_234 vss vdd mim_cap_30_30_flip
Xmim_cap_30_30_flip_223 vss vdd mim_cap_30_30_flip
Xmim_cap_30_30_flip_201 vss vdd mim_cap_30_30_flip
Xmim_cap_30_30_58 vss vdd mim_cap_30_30
Xmim_cap_30_30_69 vss vdd mim_cap_30_30
Xmim_cap_30_30_14 vss vdd mim_cap_30_30
Xmim_cap_30_30_25 vss vdd mim_cap_30_30
Xmim_cap_30_30_47 vss vdd mim_cap_30_30
Xmim_cap_30_30_36 vss vdd mim_cap_30_30
Xmim_cap_30_30_214 vss vdd mim_cap_30_30
Xmim_cap_30_30_225 vss vdd mim_cap_30_30
Xmim_cap_30_30_203 vss vdd mim_cap_30_30
Xmim_cap_30_30_236 vss vdd mim_cap_30_30
Xmim_cap_30_30_flip_224 vss vdd mim_cap_30_30_flip
Xmim_cap_30_30_flip_213 vss vdd mim_cap_30_30_flip
Xmim_cap_30_30_flip_235 vss vdd mim_cap_30_30_flip
Xmim_cap_30_30_flip_202 vss vdd mim_cap_30_30_flip
Xmim_cap_30_30_59 vss vdd mim_cap_30_30
Xmim_cap_30_30_15 vss vdd mim_cap_30_30
Xmim_cap_30_30_48 vss vdd mim_cap_30_30
Xmim_cap_30_30_26 vss vdd mim_cap_30_30
Xmim_cap_30_30_37 vss vdd mim_cap_30_30
Xmim_cap_30_30_226 vss vdd mim_cap_30_30
Xmim_cap_30_30_204 vss vdd mim_cap_30_30
Xmim_cap_30_30_237 vss vdd mim_cap_30_30
Xmim_cap_30_30_215 vss vdd mim_cap_30_30
Xmim_cap_30_30_flip_225 vss vdd mim_cap_30_30_flip
Xmim_cap_30_30_flip_214 vss vdd mim_cap_30_30_flip
Xmim_cap_30_30_flip_236 vss vdd mim_cap_30_30_flip
Xmim_cap_30_30_flip_203 vss vdd mim_cap_30_30_flip
Xmim_cap_30_30_16 vss vdd mim_cap_30_30
Xmim_cap_30_30_49 vss vdd mim_cap_30_30
Xmim_cap_30_30_38 vss vdd mim_cap_30_30
Xmim_cap_30_30_27 vss vdd mim_cap_30_30
Xmim_cap_30_30_227 vss vdd mim_cap_30_30
Xmim_cap_30_30_238 vss vdd mim_cap_30_30
Xmim_cap_30_30_205 vss vdd mim_cap_30_30
Xmim_cap_30_30_216 vss vdd mim_cap_30_30
Xmim_cap_30_30_flip_226 vss vdd mim_cap_30_30_flip
Xmim_cap_30_30_flip_215 vss vdd mim_cap_30_30_flip
Xmim_cap_30_30_flip_237 vss vdd mim_cap_30_30_flip
Xmim_cap_30_30_flip_204 vss vdd mim_cap_30_30_flip
Xmim_cap_30_30_17 vss vdd mim_cap_30_30
Xmim_cap_30_30_28 vss vdd mim_cap_30_30
Xmim_cap_30_30_39 vss vdd mim_cap_30_30
Xmim_cap_30_30_228 vss vdd mim_cap_30_30
Xmim_cap_30_30_217 vss vdd mim_cap_30_30
Xmim_cap_30_30_239 vss vdd mim_cap_30_30
Xmim_cap_30_30_206 vss vdd mim_cap_30_30
Xmim_cap_30_30_flip_227 vss vdd mim_cap_30_30_flip
Xmim_cap_30_30_flip_216 vss vdd mim_cap_30_30_flip
Xmim_cap_30_30_flip_238 vss vdd mim_cap_30_30_flip
Xmim_cap_30_30_flip_205 vss vdd mim_cap_30_30_flip
Xmim_cap_30_30_18 vss vdd mim_cap_30_30
Xmim_cap_30_30_29 vss vdd mim_cap_30_30
Xmim_cap_30_30_229 vss vdd mim_cap_30_30
Xmim_cap_30_30_218 vss vdd mim_cap_30_30
Xmim_cap_30_30_207 vss vdd mim_cap_30_30
Xmim_cap_30_30_flip_228 vss vdd mim_cap_30_30_flip
Xmim_cap_30_30_flip_217 vss vdd mim_cap_30_30_flip
Xmim_cap_30_30_flip_206 vss vdd mim_cap_30_30_flip
Xmim_cap_30_30_flip_239 vss vdd mim_cap_30_30_flip
Xmim_cap_30_30_19 vss vdd mim_cap_30_30
Xmim_cap_30_30_219 vss vdd mim_cap_30_30
Xmim_cap_30_30_208 vss vdd mim_cap_30_30
Xmim_cap_30_30_flip_229 vss vdd mim_cap_30_30_flip
Xmim_cap_30_30_flip_218 vss vdd mim_cap_30_30_flip
Xmim_cap_30_30_flip_207 vss vdd mim_cap_30_30_flip
Xmim_cap_30_30_209 vss vdd mim_cap_30_30
Xmim_cap_30_30_flip_219 vss vdd mim_cap_30_30_flip
Xmim_cap_30_30_flip_208 vss vdd mim_cap_30_30_flip
Xmim_cap_30_30_190 vss vdd mim_cap_30_30
Xmim_cap_30_30_flip_209 vss vdd mim_cap_30_30_flip
Xmim_cap_30_30_flip_90 vss vdd mim_cap_30_30_flip
Xmim_cap_30_30_180 vss vdd mim_cap_30_30
Xmim_cap_30_30_191 vss vdd mim_cap_30_30
Xmim_cap_30_30_flip_80 vss vdd mim_cap_30_30_flip
Xmim_cap_30_30_flip_91 vss vdd mim_cap_30_30_flip
Xmim_cap_30_30_flip_190 vss vdd mim_cap_30_30_flip
Xmim_cap_30_30_170 vss vdd mim_cap_30_30
Xmim_cap_30_30_181 vss vdd mim_cap_30_30
Xmim_cap_30_30_192 vss vdd mim_cap_30_30
Xmim_cap_30_30_flip_81 vss vdd mim_cap_30_30_flip
Xmim_cap_30_30_flip_70 vss vdd mim_cap_30_30_flip
Xmim_cap_30_30_flip_92 vss vdd mim_cap_30_30_flip
Xmim_cap_30_30_flip_0 vss vdd mim_cap_30_30_flip
Xmim_cap_30_30_flip_191 vss vdd mim_cap_30_30_flip
Xmim_cap_30_30_flip_180 vss vdd mim_cap_30_30_flip
Xmim_cap_30_30_0 vss vdd mim_cap_30_30
Xmim_cap_30_30_160 vss vdd mim_cap_30_30
Xmim_cap_30_30_193 vss vdd mim_cap_30_30
Xmim_cap_30_30_182 vss vdd mim_cap_30_30
Xmim_cap_30_30_171 vss vdd mim_cap_30_30
Xmim_cap_30_30_flip_60 vss vdd mim_cap_30_30_flip
Xmim_cap_30_30_flip_82 vss vdd mim_cap_30_30_flip
Xmim_cap_30_30_flip_71 vss vdd mim_cap_30_30_flip
Xmim_cap_30_30_flip_93 vss vdd mim_cap_30_30_flip
Xmim_cap_30_30_flip_1 vss vdd mim_cap_30_30_flip
Xmim_cap_30_30_flip_170 vss vdd mim_cap_30_30_flip
Xmim_cap_30_30_flip_192 vss vdd mim_cap_30_30_flip
Xmim_cap_30_30_flip_181 vss vdd mim_cap_30_30_flip
Xmim_cap_30_30_1 vss vdd mim_cap_30_30
Xmim_cap_30_30_183 vss vdd mim_cap_30_30
Xmim_cap_30_30_172 vss vdd mim_cap_30_30
Xmim_cap_30_30_150 vss vdd mim_cap_30_30
Xmim_cap_30_30_194 vss vdd mim_cap_30_30
Xmim_cap_30_30_161 vss vdd mim_cap_30_30
Xmim_cap_30_30_flip_83 vss vdd mim_cap_30_30_flip
Xmim_cap_30_30_flip_72 vss vdd mim_cap_30_30_flip
Xmim_cap_30_30_flip_94 vss vdd mim_cap_30_30_flip
Xmim_cap_30_30_flip_50 vss vdd mim_cap_30_30_flip
Xmim_cap_30_30_flip_61 vss vdd mim_cap_30_30_flip
Xmim_cap_30_30_flip_2 vss vdd mim_cap_30_30_flip
Xmim_cap_30_30_flip_160 vss vdd mim_cap_30_30_flip
Xmim_cap_30_30_flip_193 vss vdd mim_cap_30_30_flip
Xmim_cap_30_30_flip_182 vss vdd mim_cap_30_30_flip
Xmim_cap_30_30_flip_171 vss vdd mim_cap_30_30_flip
Xmim_cap_30_30_2 vss vdd mim_cap_30_30
Xmim_cap_30_30_173 vss vdd mim_cap_30_30
Xmim_cap_30_30_162 vss vdd mim_cap_30_30
Xmim_cap_30_30_184 vss vdd mim_cap_30_30
Xmim_cap_30_30_195 vss vdd mim_cap_30_30
Xmim_cap_30_30_140 vss vdd mim_cap_30_30
Xmim_cap_30_30_151 vss vdd mim_cap_30_30
Xmim_cap_30_30_flip_73 vss vdd mim_cap_30_30_flip
Xmim_cap_30_30_flip_84 vss vdd mim_cap_30_30_flip
Xmim_cap_30_30_flip_95 vss vdd mim_cap_30_30_flip
Xmim_cap_30_30_flip_51 vss vdd mim_cap_30_30_flip
Xmim_cap_30_30_flip_40 vss vdd mim_cap_30_30_flip
Xmim_cap_30_30_flip_62 vss vdd mim_cap_30_30_flip
Xmim_cap_30_30_flip_3 vss vdd mim_cap_30_30_flip
Xmim_cap_30_30_flip_161 vss vdd mim_cap_30_30_flip
Xmim_cap_30_30_flip_172 vss vdd mim_cap_30_30_flip
Xmim_cap_30_30_flip_194 vss vdd mim_cap_30_30_flip
Xmim_cap_30_30_flip_183 vss vdd mim_cap_30_30_flip
Xmim_cap_30_30_flip_150 vss vdd mim_cap_30_30_flip
Xmim_cap_30_30_3 vss vdd mim_cap_30_30
Xmim_cap_30_30_174 vss vdd mim_cap_30_30
Xmim_cap_30_30_152 vss vdd mim_cap_30_30
Xmim_cap_30_30_141 vss vdd mim_cap_30_30
Xmim_cap_30_30_196 vss vdd mim_cap_30_30
Xmim_cap_30_30_130 vss vdd mim_cap_30_30
Xmim_cap_30_30_185 vss vdd mim_cap_30_30
Xmim_cap_30_30_163 vss vdd mim_cap_30_30
Xmim_cap_30_30_flip_30 vss vdd mim_cap_30_30_flip
Xmim_cap_30_30_flip_74 vss vdd mim_cap_30_30_flip
Xmim_cap_30_30_flip_85 vss vdd mim_cap_30_30_flip
Xmim_cap_30_30_flip_52 vss vdd mim_cap_30_30_flip
Xmim_cap_30_30_flip_96 vss vdd mim_cap_30_30_flip
Xmim_cap_30_30_flip_41 vss vdd mim_cap_30_30_flip
Xmim_cap_30_30_flip_63 vss vdd mim_cap_30_30_flip
Xmim_cap_30_30_flip_4 vss vdd mim_cap_30_30_flip
Xmim_cap_30_30_flip_151 vss vdd mim_cap_30_30_flip
Xmim_cap_30_30_flip_162 vss vdd mim_cap_30_30_flip
Xmim_cap_30_30_flip_140 vss vdd mim_cap_30_30_flip
Xmim_cap_30_30_flip_173 vss vdd mim_cap_30_30_flip
Xmim_cap_30_30_flip_184 vss vdd mim_cap_30_30_flip
Xmim_cap_30_30_flip_195 vss vdd mim_cap_30_30_flip
Xmim_cap_30_30_4 vss vdd mim_cap_30_30
Xmim_cap_30_30_131 vss vdd mim_cap_30_30
Xmim_cap_30_30_120 vss vdd mim_cap_30_30
Xmim_cap_30_30_153 vss vdd mim_cap_30_30
Xmim_cap_30_30_186 vss vdd mim_cap_30_30
Xmim_cap_30_30_142 vss vdd mim_cap_30_30
Xmim_cap_30_30_197 vss vdd mim_cap_30_30
Xmim_cap_30_30_164 vss vdd mim_cap_30_30
Xmim_cap_30_30_175 vss vdd mim_cap_30_30
Xmim_cap_30_30_flip_31 vss vdd mim_cap_30_30_flip
Xmim_cap_30_30_flip_75 vss vdd mim_cap_30_30_flip
Xmim_cap_30_30_flip_20 vss vdd mim_cap_30_30_flip
Xmim_cap_30_30_flip_64 vss vdd mim_cap_30_30_flip
Xmim_cap_30_30_flip_86 vss vdd mim_cap_30_30_flip
Xmim_cap_30_30_flip_42 vss vdd mim_cap_30_30_flip
Xmim_cap_30_30_flip_53 vss vdd mim_cap_30_30_flip
Xmim_cap_30_30_flip_97 vss vdd mim_cap_30_30_flip
Xmim_cap_30_30_flip_5 vss vdd mim_cap_30_30_flip
Xmim_cap_30_30_flip_152 vss vdd mim_cap_30_30_flip
Xmim_cap_30_30_flip_163 vss vdd mim_cap_30_30_flip
Xmim_cap_30_30_flip_141 vss vdd mim_cap_30_30_flip
Xmim_cap_30_30_flip_174 vss vdd mim_cap_30_30_flip
Xmim_cap_30_30_flip_130 vss vdd mim_cap_30_30_flip
Xmim_cap_30_30_flip_196 vss vdd mim_cap_30_30_flip
Xmim_cap_30_30_flip_185 vss vdd mim_cap_30_30_flip
Xmim_cap_30_30_5 vss vdd mim_cap_30_30
Xmim_cap_30_30_154 vss vdd mim_cap_30_30
Xmim_cap_30_30_176 vss vdd mim_cap_30_30
Xmim_cap_30_30_165 vss vdd mim_cap_30_30
Xmim_cap_30_30_110 vss vdd mim_cap_30_30
Xmim_cap_30_30_132 vss vdd mim_cap_30_30
Xmim_cap_30_30_121 vss vdd mim_cap_30_30
Xmim_cap_30_30_143 vss vdd mim_cap_30_30
Xmim_cap_30_30_198 vss vdd mim_cap_30_30
Xmim_cap_30_30_187 vss vdd mim_cap_30_30
Xmim_cap_30_30_flip_76 vss vdd mim_cap_30_30_flip
Xmim_cap_30_30_flip_21 vss vdd mim_cap_30_30_flip
Xmim_cap_30_30_flip_65 vss vdd mim_cap_30_30_flip
Xmim_cap_30_30_flip_10 vss vdd mim_cap_30_30_flip
Xmim_cap_30_30_flip_32 vss vdd mim_cap_30_30_flip
Xmim_cap_30_30_flip_43 vss vdd mim_cap_30_30_flip
Xmim_cap_30_30_flip_54 vss vdd mim_cap_30_30_flip
Xmim_cap_30_30_flip_87 vss vdd mim_cap_30_30_flip
Xmim_cap_30_30_flip_98 vss vdd mim_cap_30_30_flip
Xmim_cap_30_30_flip_6 vss vdd mim_cap_30_30_flip
Xmim_cap_30_30_flip_153 vss vdd mim_cap_30_30_flip
Xmim_cap_30_30_flip_164 vss vdd mim_cap_30_30_flip
Xmim_cap_30_30_flip_175 vss vdd mim_cap_30_30_flip
Xmim_cap_30_30_flip_131 vss vdd mim_cap_30_30_flip
Xmim_cap_30_30_flip_142 vss vdd mim_cap_30_30_flip
Xmim_cap_30_30_flip_120 vss vdd mim_cap_30_30_flip
Xmim_cap_30_30_flip_197 vss vdd mim_cap_30_30_flip
Xmim_cap_30_30_flip_186 vss vdd mim_cap_30_30_flip
Xmim_cap_30_30_6 vss vdd mim_cap_30_30
Xmim_cap_30_30_155 vss vdd mim_cap_30_30
Xmim_cap_30_30_166 vss vdd mim_cap_30_30
Xmim_cap_30_30_111 vss vdd mim_cap_30_30
Xmim_cap_30_30_100 vss vdd mim_cap_30_30
Xmim_cap_30_30_133 vss vdd mim_cap_30_30
Xmim_cap_30_30_144 vss vdd mim_cap_30_30
Xmim_cap_30_30_122 vss vdd mim_cap_30_30
Xmim_cap_30_30_199 vss vdd mim_cap_30_30
Xmim_cap_30_30_188 vss vdd mim_cap_30_30
Xmim_cap_30_30_177 vss vdd mim_cap_30_30
Xmim_cap_30_30_flip_77 vss vdd mim_cap_30_30_flip
Xmim_cap_30_30_flip_22 vss vdd mim_cap_30_30_flip
Xmim_cap_30_30_flip_66 vss vdd mim_cap_30_30_flip
Xmim_cap_30_30_flip_11 vss vdd mim_cap_30_30_flip
Xmim_cap_30_30_flip_99 vss vdd mim_cap_30_30_flip
Xmim_cap_30_30_flip_33 vss vdd mim_cap_30_30_flip
Xmim_cap_30_30_flip_44 vss vdd mim_cap_30_30_flip
Xmim_cap_30_30_flip_55 vss vdd mim_cap_30_30_flip
Xmim_cap_30_30_flip_88 vss vdd mim_cap_30_30_flip
Xmim_cap_30_30_flip_7 vss vdd mim_cap_30_30_flip
Xmim_cap_30_30_flip_110 vss vdd mim_cap_30_30_flip
Xmim_cap_30_30_flip_121 vss vdd mim_cap_30_30_flip
Xmim_cap_30_30_flip_154 vss vdd mim_cap_30_30_flip
Xmim_cap_30_30_flip_176 vss vdd mim_cap_30_30_flip
Xmim_cap_30_30_flip_143 vss vdd mim_cap_30_30_flip
Xmim_cap_30_30_flip_198 vss vdd mim_cap_30_30_flip
Xmim_cap_30_30_flip_187 vss vdd mim_cap_30_30_flip
Xmim_cap_30_30_flip_132 vss vdd mim_cap_30_30_flip