* NGSPICE file created from saradc.ext - technology: gf180mcuD

.subckt XM2_latch_x4 G D S VSUBS
X0 S G D S pfet_03v3 ad=0.44p pd=2.88u as=0.44p ps=2.88u w=1u l=0.28u
C0 D G 0.001764f
C1 S G 0.143803f
C2 S D 0.09188f
C3 D VSUBS 0.04225f
C4 G VSUBS 0.082818f
C5 S VSUBS 1.56551f
.ends

.subckt XM1_latch_x4 G D S
X0 D G S S nfet_03v3 ad=0.44p pd=2.88u as=0.44p ps=2.88u w=1u l=0.28u
C0 G D 0.001764f
C1 D S 0.134096f
C2 G S 0.226575f
.ends

.subckt x4_latch vdd out in vss
XXM2_latch_x4_0 in out vdd vss XM2_latch_x4
XXM1_latch_x4_0 in out vss XM1_latch_x4
C0 vdd out 0.102755f
C1 out in 0.057341f
C2 vdd in 0.039699f
C3 out vss 0.49906f
C4 in vss 0.450066f
C5 vdd vss 1.7619f
.ends

.subckt XM2_latch_x3 G D S VSUBS
X0 S G D S pfet_03v3 ad=0.44p pd=2.88u as=0.44p ps=2.88u w=1u l=0.28u
C0 G D 0.001764f
C1 S D 0.09188f
C2 S G 0.143803f
C3 D VSUBS 0.04225f
C4 G VSUBS 0.082818f
C5 S VSUBS 1.56551f
.ends

.subckt XM1_latch_x3 G D S
X0 D G S S nfet_03v3 ad=0.44p pd=2.88u as=0.44p ps=2.88u w=1u l=0.28u
C0 G D 0.001764f
C1 D S 0.134096f
C2 G S 0.226575f
.ends

.subckt x3_latch out in vdd vss
XXM2_latch_x3_0 in out vdd vss XM2_latch_x3
XXM1_latch_x3_0 in out vss XM1_latch_x3
C0 in out 0.057341f
C1 vdd out 0.102755f
C2 vdd in 0.039699f
C3 out vss 0.49906f
C4 in vss 0.450066f
C5 vdd vss 1.761853f
.ends

.subckt XM4_latch G D a_258_n1293# S
X0 S G D S nfet_03v3 ad=0.44p pd=2.88u as=0.44p ps=2.88u w=1u l=0.28u
C0 G D 0.001764f
C1 D S 0.134096f
C2 G S 0.22648f
.ends

.subckt XM2_latch_x2 G D S VSUBS
X0 S G D S pfet_03v3 ad=0.44p pd=2.88u as=0.44p ps=2.88u w=1u l=0.28u
C0 G D 0.001764f
C1 S D 0.091354f
C2 S G 0.143685f
C3 D VSUBS 0.043675f
C4 G VSUBS 0.082818f
C5 S VSUBS 1.5328f
.ends

.subckt XM1_latch_x2 G D S
X0 D G S S nfet_03v3 ad=0.44p pd=2.88u as=0.44p ps=2.88u w=1u l=0.28u
C0 G D 0.001764f
C1 D S 0.134096f
C2 G S 0.22648f
.ends

.subckt x2_latch vdd out in vss
XXM2_latch_x2_0 in out vdd vss XM2_latch_x2
XXM1_latch_x2_0 in out vss XM1_latch_x2
C0 in out 0.057341f
C1 vdd out 0.088354f
C2 vdd in 0.039609f
C3 out vss 0.511014f
C4 in vss 0.449897f
C5 vdd vss 1.73873f
.ends

.subckt XM3_latch G D a_n349_n1268# S
X0 D G S S nfet_03v3 ad=0.44p pd=2.88u as=0.44p ps=2.88u w=1u l=0.28u
C0 G D 0.001764f
C1 D S 0.134096f
C2 G S 0.22648f
.ends

.subckt XM2_latch_x1 G D S VSUBS
X0 S G D S pfet_03v3 ad=0.44p pd=2.88u as=0.44p ps=2.88u w=1u l=0.28u
C0 G D 0.001764f
C1 S D 0.091354f
C2 S G 0.143685f
C3 D VSUBS 0.043675f
C4 G VSUBS 0.082818f
C5 S VSUBS 1.5328f
.ends

.subckt XM1_latch_x1 G D S a_n254_114#
X0 D G S S nfet_03v3 ad=0.44p pd=2.88u as=0.44p ps=2.88u w=1u l=0.28u
C0 G D 0.001764f
C1 D S 0.134096f
C2 G S 0.22648f
.ends

.subckt x1_latch out in XM1_latch_x1_0/a_n254_114# vdd vss
XXM2_latch_x1_0 in out vdd vss XM2_latch_x1
XXM1_latch_x1_0 in out vss XM1_latch_x1_0/a_n254_114# XM1_latch_x1
C0 in out 0.057341f
C1 vdd out 0.088354f
C2 vdd in 0.039609f
C3 out vss 0.511014f
C4 in vss 0.449897f
C5 vdd vss 1.738608f
.ends

.subckt latch tutyuu1 tutyuu2 Qn Q S R vdd vss
Xx4_latch_0 vdd tutyuu1 S vss x4_latch
Xx3_latch_0 tutyuu2 R vdd vss x3_latch
XXM4_latch_0 tutyuu2 Q vss vss XM4_latch
Xx2_latch_0 vdd Qn Q vss x2_latch
XXM3_latch_0 tutyuu1 Qn vss vss XM3_latch
Xx1_latch_0 Q Qn vss vdd vss x1_latch
C0 tutyuu1 vdd 0.101448f
C1 tutyuu1 S 0.115854f
C2 R Q 0.011346f
C3 Qn Q 1.472762f
C4 R tutyuu2 0.115854f
C5 Qn tutyuu2 0.060761f
C6 R vdd 0.053607f
C7 Q tutyuu2 0.109341f
C8 Qn vdd 0.059024f
C9 Qn S 0.011276f
C10 Q vdd 0.35434f
C11 Qn tutyuu1 0.109231f
C12 tutyuu1 Q 0.060871f
C13 vdd tutyuu2 0.101384f
C14 vdd S 0.053607f
C15 vdd vss 5.959083f
C16 Qn vss 0.913293f
C17 Q vss 0.942836f
C18 tutyuu2 vss 0.702253f
C19 R vss 0.476811f
C20 tutyuu1 vss 0.702189f
C21 S vss 0.476811f
.ends

.subckt XM2_buffer_inv2 G D S VSUBS
X0 S G D S pfet_03v3 ad=0.44p pd=2.88u as=0.44p ps=2.88u w=1u l=0.28u
C0 S G 0.138578f
C1 D G 0.001764f
C2 D S 0.090564f
C3 D VSUBS 0.043675f
C4 G VSUBS 0.08816f
C5 S VSUBS 1.2321f
.ends

.subckt XM1_buffer_inv2 G D S
X0 D G S S nfet_03v3 ad=0.44p pd=2.88u as=0.44p ps=2.88u w=1u l=0.28u
C0 G D 0.001764f
C1 D S 0.134177f
C2 G S 0.22667f
.ends

.subckt buffer_inv2 vdd out in vss
XXM2_buffer_inv2_0 in out vdd vss XM2_buffer_inv2
XXM1_buffer_inv2_0 in out vss XM1_buffer_inv2
C0 vdd in 0.034991f
C1 out in 0.057341f
C2 out vdd 0.086562f
C3 out vss 0.51823f
C4 in vss 0.460091f
C5 vdd vss 1.392287f
.ends

.subckt XM1_buffer_inv1 G D S
X0 D G S S nfet_03v3 ad=0.44p pd=2.88u as=0.44p ps=2.88u w=1u l=0.28u
C0 G D 0.001764f
C1 D S 0.134177f
C2 G S 0.22667f
.ends

.subckt buffer_inv1 vdd out in XM2_buffer_inv1_0/w_n90_n162# vss
XXM1_buffer_inv1_0 in out vss XM1_buffer_inv1
C0 XM2_buffer_inv1_0/w_n90_n162# vdd 0.009724f
C1 XM2_buffer_inv1_0/w_n90_n162# in 0.049713f
C2 vdd out 0.142029f
C3 in out 0.058676f
C4 XM2_buffer_inv1_0/w_n90_n162# out 0.007628f
C5 in vdd 0.040357f
C6 out vss 0.548612f
C7 in vss 0.543919f
C8 vdd vss 0.438255f
C9 XM2_buffer_inv1_0/w_n90_n162# vss 0.176185f
.ends

.subckt buffer middle out in vdd vss buffer_inv1_0/XM2_buffer_inv1_0/w_n90_n162#
Xbuffer_inv2_0 vdd out middle vss buffer_inv2
Xbuffer_inv1_0 vdd middle in buffer_inv1_0/XM2_buffer_inv1_0/w_n90_n162# vss buffer_inv1
C0 middle buffer_inv1_0/XM2_buffer_inv1_0/w_n90_n162# 0.003733f
C1 middle out 0.160929f
C2 vdd buffer_inv1_0/XM2_buffer_inv1_0/w_n90_n162# 0.007171f
C3 in buffer_inv1_0/XM2_buffer_inv1_0/w_n90_n162# 0.051621f
C4 out vdd 0.039935f
C5 middle vdd 0.190904f
C6 middle in 0.119536f
C7 vdd in 0.054064f
C8 middle vss 0.950535f
C9 in vss 0.600677f
C10 vdd vss 1.632177f
C11 buffer_inv1_0/XM2_buffer_inv1_0/w_n90_n162# vss 0.17473f
C12 out vss 0.56762f
.ends

.subckt inv_p VNW VPW VSS ZN I VDD VSUBS
X0 VDD I ZN VNW pfet_06v0 ad=1.2078p pd=4.42u as=0.4575p ps=1.97u w=1.22u l=0.5u
X1 ZN I VSS VSUBS nfet_06v0 ad=0.2255p pd=1.37u as=0.5084p ps=2.88u w=0.82u l=0.6u
X2 VSS I ZN VSUBS nfet_06v0 ad=0.8118p pd=3.62u as=0.2255p ps=1.37u w=0.82u l=0.6u
X3 ZN I VDD VNW pfet_06v0 ad=0.4575p pd=1.97u as=0.7564p ps=3.68u w=1.22u l=0.5u
C0 ZN VSS 0.180794f
C1 VDD VSS 0.029045f
C2 ZN VDD 0.271625f
C3 VNW VSS 0.006277f
C4 VNW ZN 0.023676f
C5 VNW VDD 0.082022f
C6 I VSS 0.091531f
C7 I ZN 0.58604f
C8 I VDD 0.074838f
C9 VNW I 0.285482f
C10 VSS VSUBS 0.296769f
C11 ZN VSUBS 0.099188f
C12 VDD VSUBS 0.238483f
C13 I VSUBS 0.610668f
C14 VNW VSUBS 1.31158f
.ends

.subckt inv_renketu_p inv_p_7/I inv_p_9/ZN inv_p_6/ZN inv_p_3/ZN inv_p_0/ZN inv_p_0/I
+ inv_p_10/I inv_p_4/I inv_p_8/ZN inv_p_2/ZN inv_p_5/ZN inv_p_6/I inv_p_2/I inv_p_10/ZN
+ inv_p_8/I inv_p_1/I inv_p_9/I inv_p_7/ZN inv_p_4/ZN inv_p_1/ZN inv_p_3/I inv_p_5/I
+ vss vdd
Xinv_p_0 vdd inv_p_0/VPW vss inv_p_0/ZN inv_p_0/I vdd vss inv_p
Xinv_p_1 vdd inv_p_1/VPW vss inv_p_1/ZN inv_p_1/I vdd vss inv_p
Xinv_p_2 vdd inv_p_2/VPW vss inv_p_2/ZN inv_p_2/I vdd vss inv_p
Xinv_p_3 vdd inv_p_3/VPW vss inv_p_3/ZN inv_p_3/I vdd vss inv_p
Xinv_p_4 vdd inv_p_4/VPW vss inv_p_4/ZN inv_p_4/I vdd vss inv_p
Xinv_p_5 vdd inv_p_5/VPW vss inv_p_5/ZN inv_p_5/I vdd vss inv_p
Xinv_p_6 vdd inv_p_6/VPW vss inv_p_6/ZN inv_p_6/I vdd vss inv_p
Xinv_p_7 vdd inv_p_7/VPW vss inv_p_7/ZN inv_p_7/I vdd vss inv_p
Xinv_p_8 vdd inv_p_8/VPW vss inv_p_8/ZN inv_p_8/I vdd vss inv_p
Xinv_p_9 vdd inv_p_9/VPW vss inv_p_9/ZN inv_p_9/I vdd vss inv_p
Xinv_p_10 vdd inv_p_10/VPW vss inv_p_10/ZN inv_p_10/I vdd vss inv_p
C0 inv_p_9/I inv_p_10/I 0.084161f
C1 vss inv_p_10/ZN 0.003326f
C2 inv_p_4/ZN inv_p_4/I 0.029333f
C3 vdd inv_p_4/ZN 0.159176f
C4 inv_p_0/ZN inv_p_3/I 0.002086f
C5 inv_p_9/I inv_p_10/ZN 0.028928f
C6 inv_p_4/I inv_p_5/I 0.084161f
C7 vdd inv_p_5/I 0.019437f
C8 inv_p_6/ZN inv_p_6/I 0.029333f
C9 inv_p_9/ZN inv_p_10/I 0.002086f
C10 inv_p_3/I inv_p_1/I 0.084161f
C11 inv_p_6/ZN vss 0.003326f
C12 inv_p_1/ZN inv_p_3/I 0.028928f
C13 inv_p_9/ZN inv_p_10/ZN 0.080571f
C14 inv_p_1/I inv_p_4/ZN 0.028928f
C15 inv_p_4/I inv_p_5/ZN 0.028928f
C16 vdd inv_p_5/ZN 0.159176f
C17 inv_p_6/ZN inv_p_7/I 0.002086f
C18 inv_p_1/ZN inv_p_4/ZN 0.080571f
C19 inv_p_2/ZN inv_p_2/I 0.029333f
C20 vdd inv_p_4/I 0.019437f
C21 inv_p_6/ZN inv_p_7/ZN 0.080571f
C22 vss inv_p_3/ZN 0.003326f
C23 inv_p_0/ZN vdd 0.184001f
C24 inv_p_2/I vss 0.164788f
C25 inv_p_2/ZN vss 0.005014f
C26 inv_p_6/I vss 0.166388f
C27 inv_p_0/I inv_p_3/ZN 0.028928f
C28 inv_p_1/I inv_p_4/I 0.084161f
C29 vdd inv_p_1/I 0.019437f
C30 inv_p_6/I inv_p_7/I 0.084161f
C31 inv_p_1/ZN inv_p_4/I 0.002086f
C32 inv_p_1/ZN vdd 0.159176f
C33 vss inv_p_8/I 0.166388f
C34 inv_p_7/I vss 0.166388f
C35 vss inv_p_9/I 0.166388f
C36 inv_p_7/I inv_p_8/I 0.084161f
C37 inv_p_9/I inv_p_8/I 0.084161f
C38 inv_p_6/I inv_p_7/ZN 0.028928f
C39 inv_p_0/I vss 0.170492f
C40 inv_p_1/ZN inv_p_1/I 0.029333f
C41 vss inv_p_8/ZN 0.003326f
C42 inv_p_6/ZN inv_p_5/I 0.028928f
C43 inv_p_7/ZN vss 0.003326f
C44 vdd inv_p_10/I 0.019437f
C45 inv_p_8/I inv_p_8/ZN 0.029333f
C46 vss inv_p_9/ZN 0.003326f
C47 inv_p_7/ZN inv_p_8/I 0.002086f
C48 inv_p_7/I inv_p_8/ZN 0.028928f
C49 inv_p_9/ZN inv_p_8/I 0.028928f
C50 inv_p_9/I inv_p_8/ZN 0.002086f
C51 inv_p_7/I inv_p_7/ZN 0.029333f
C52 inv_p_9/I inv_p_9/ZN 0.029333f
C53 vdd inv_p_10/ZN 0.159176f
C54 inv_p_3/I inv_p_3/ZN 0.029333f
C55 inv_p_6/ZN inv_p_5/ZN 0.080571f
C56 inv_p_7/ZN inv_p_8/ZN 0.080571f
C57 inv_p_9/ZN inv_p_8/ZN 0.080571f
C58 inv_p_6/ZN vdd 0.159176f
C59 vss inv_p_3/I 0.166388f
C60 inv_p_6/I inv_p_5/I 0.084161f
C61 vss inv_p_4/ZN 0.003326f
C62 vss inv_p_5/I 0.166388f
C63 inv_p_0/I inv_p_3/I 0.08416f
C64 inv_p_6/I inv_p_5/ZN 0.002086f
C65 vdd inv_p_3/ZN 0.159176f
C66 inv_p_2/I vdd 0.035575f
C67 inv_p_10/I inv_p_10/ZN 0.029333f
C68 vss inv_p_5/ZN 0.003326f
C69 inv_p_2/ZN vdd 0.174722f
C70 inv_p_0/ZN inv_p_3/ZN 0.080571f
C71 inv_p_6/I vdd 0.019437f
C72 inv_p_1/I inv_p_3/ZN 0.002086f
C73 vss inv_p_4/I 0.166388f
C74 vdd vss 0.009518f
C75 vdd inv_p_8/I 0.019437f
C76 inv_p_1/ZN inv_p_3/ZN 0.080571f
C77 inv_p_7/I vdd 0.019437f
C78 vdd inv_p_9/I 0.019437f
C79 inv_p_0/ZN vss 0.005399f
C80 inv_p_0/I vdd 0.026972f
C81 vdd inv_p_8/ZN 0.159176f
C82 inv_p_0/I inv_p_0/ZN 0.029333f
C83 vss inv_p_1/I 0.166388f
C84 inv_p_7/ZN vdd 0.159176f
C85 vdd inv_p_9/ZN 0.159176f
C86 inv_p_1/ZN vss 0.003326f
C87 inv_p_4/ZN inv_p_5/I 0.002086f
C88 inv_p_2/I inv_p_10/I 0.084161f
C89 inv_p_2/ZN inv_p_10/I 0.028928f
C90 inv_p_2/I inv_p_10/ZN 0.002086f
C91 inv_p_2/ZN inv_p_10/ZN 0.080571f
C92 inv_p_4/ZN inv_p_5/ZN 0.080571f
C93 vss inv_p_10/I 0.166388f
C94 inv_p_5/I inv_p_5/ZN 0.029333f
C95 vdd inv_p_3/I 0.019437f
C96 inv_p_10/ZN 0 0.131999f
C97 inv_p_10/I 0 0.64919f
C98 inv_p_9/ZN 0 0.131999f
C99 inv_p_9/I 0 0.64919f
C100 inv_p_8/ZN 0 0.131999f
C101 inv_p_8/I 0 0.64919f
C102 inv_p_7/ZN 0 0.131999f
C103 inv_p_7/I 0 0.64919f
C104 inv_p_6/ZN 0 0.131999f
C105 inv_p_6/I 0 0.64919f
C106 inv_p_5/ZN 0 0.131999f
C107 inv_p_5/I 0 0.64919f
C108 inv_p_4/ZN 0 0.131999f
C109 inv_p_4/I 0 0.64919f
C110 inv_p_3/ZN 0 0.131999f
C111 inv_p_3/I 0 0.64919f
C112 vss 0 3.02573f
C113 inv_p_2/ZN 0 0.206166f
C114 vdd 0 16.013325f
C115 inv_p_2/I 0 0.750024f
C116 inv_p_1/ZN 0 0.131999f
C117 inv_p_1/I 0 0.64919f
C118 inv_p_0/ZN 0 0.209411f
C119 inv_p_0/I 0 0.731246f
.ends

.subckt XM1_bs G D a_811_3903# S a_1507_3903#
X0 D G S a_811_3903# nfet_03v3 ad=0.88p pd=4.88u as=0.88p ps=4.88u w=2u l=0.5u
C0 D S 0.103318f
C1 G S 0.002993f
C2 G D 0.002993f
C3 S a_811_3903# 0.109266f
C4 G a_811_3903# 0.288275f
C5 D a_811_3903# 0.109266f
.ends

.subckt XM4_bs G D S VSUBS
X0 D G S S pfet_03v3 ad=0.88p pd=4.88u as=0.88p ps=4.88u w=2u l=0.5u
C0 D G 0.002993f
C1 S G 0.180042f
C2 D S 0.127372f
C3 D VSUBS 0.094602f
C4 G VSUBS 0.124463f
C5 S VSUBS 1.66703f
.ends

.subckt XMs1_bs G D S a_n2855_n800#
X0 D G S a_n2855_n800# nfet_03v3 ad=0.88p pd=4.88u as=0.88p ps=4.88u w=2u l=0.5u
C0 D S 0.103318f
C1 G S 0.002993f
C2 D G 0.002993f
C3 D a_n2855_n800# 0.109266f
C4 S a_n2855_n800# 0.177295f
C5 G a_n2855_n800# 0.288368f
.ends

.subckt cap_mim_2p0fF_8JNR63 m4_n3440_n548# m4_n3800_n668# VSUBS
X0 m4_n3440_n548# m4_n3800_n668# cap_mim_2f0fF c_width=8u c_length=8u
C0 m4_n3800_n668# m4_n3440_n548# 0.646322f
C1 m4_n3440_n548# VSUBS 1.17298f
C2 m4_n3800_n668# VSUBS 1.64833f
.ends

.subckt sw_cap_unit in out VSUBS
Xcap_mim_2p0fF_8JNR63_0 out in VSUBS cap_mim_2p0fF_8JNR63
C0 out VSUBS 1.17298f
C1 in VSUBS 1.64833f
.ends

.subckt sw_cap out in VSUBS
Xsw_cap_unit_0 in out VSUBS sw_cap_unit
Xsw_cap_unit_1 in out VSUBS sw_cap_unit
Xsw_cap_unit_2 in out VSUBS sw_cap_unit
Xsw_cap_unit_3 in out VSUBS sw_cap_unit
Xsw_cap_unit_4 in out VSUBS sw_cap_unit
C0 in out 2.231591f
C1 out VSUBS 6.064711f
C2 in VSUBS 7.39096f
.ends

.subckt XM3_bs G D S VSUBS
X0 S G D S pfet_03v3 ad=0.88p pd=4.88u as=0.88p ps=4.88u w=2u l=0.5u
C0 D S 0.127372f
C1 D G 0.002993f
C2 S G 0.175929f
C3 D VSUBS 0.094602f
C4 G VSUBS 0.124463f
C5 S VSUBS 1.68221f
.ends

.subckt XMs_bs G D S a_846_4542#
X0 S G D a_846_4542# nfet_03v3 ad=0.88p pd=4.88u as=0.88p ps=4.88u w=2u l=0.5u
C0 D S 0.103318f
C1 D G 0.002993f
C2 S G 0.002993f
C3 D a_846_4542# 0.387117f
C4 G a_846_4542# 0.288368f
C5 S a_846_4542# 0.109266f
.ends

.subckt XM1_bs_inv G D S
X0 D G S S nfet_03v3 ad=0.44p pd=2.88u as=0.44p ps=2.88u w=1u l=0.28u
C0 G D 0.001764f
C1 D S 0.134177f
C2 G S 0.22667f
.ends

.subckt XM2_bs_inv G D S VSUBS
X0 S G D S pfet_03v3 ad=0.44p pd=2.88u as=0.44p ps=2.88u w=1u l=0.28u
C0 D S 0.090564f
C1 D G 0.001764f
C2 S G 0.138578f
C3 D VSUBS 0.043675f
C4 G VSUBS 0.08816f
C5 S VSUBS 1.2321f
.ends

.subckt bs_inv out in vdd vss
XXM1_bs_inv_0 in out vss XM1_bs_inv
XXM2_bs_inv_0 in out vdd vss XM2_bs_inv
C0 out in 0.057341f
C1 in vdd 0.034991f
C2 out vdd 0.086562f
C3 in vss 0.019395f
C4 out vss 0.056311f
C5 vss vdd 0.050184f
C6 vss 0 0.154858f
C7 vdd 0 1.342913f
C8 out 0 0.461919f
C9 in 0 0.440696f
.ends

.subckt XM2_bs G D a_811_3460# a_1507_3460# S
X0 S G D a_811_3460# nfet_03v3 ad=0.88p pd=4.88u as=0.88p ps=4.88u w=2u l=0.5u
C0 G D 0.002993f
C1 S D 0.103318f
C2 G S 0.002993f
C3 D a_811_3460# 0.109266f
C4 G a_811_3460# 0.288275f
C5 S a_811_3460# 0.109266f
.ends

.subckt XMs2_bs G D a_n3988_469# S a_n3988_1165#
X0 D G S a_n3988_469# nfet_03v3 ad=0.88p pd=4.88u as=0.88p ps=4.88u w=2u l=0.5u
C0 S D 0.103318f
C1 G D 0.002993f
C2 S G 0.002993f
C3 D a_n3988_469# 0.109266f
C4 S a_n3988_469# 0.109266f
C5 G a_n3988_469# 0.288275f
.ends

.subckt bootstrapped_sw_p in vss en enb vs vg vdd out vbsh vbsl
XXM1_bs_0 vg vbsl vss in vss XM1_bs
XXM4_bs_0 enb vg vbsh vss XM4_bs
XXMs1_bs_0 vdd vs vg vss XMs1_bs
Xsw_cap_0 vbsh vbsl vss sw_cap
XXM3_bs_0 vg vdd vbsh vss XM3_bs
XXMs_bs_0 vg out in vss XMs_bs
Xbs_inv_0 enb en vdd vss bs_inv
XXM2_bs_0 enb vbsl vss vss vss XM2_bs
XXMs2_bs_0 enb vss vss vs vss XMs2_bs
C0 vbsh out 0.106418f
C1 enb vg 0.612108f
C2 vdd vg 0.447811f
C3 enb vs 0.00376f
C4 enb vbsl 0.017274f
C5 vbsl vdd 0.005409f
C6 vbsh vg 0.225467f
C7 vg in 0.075595f
C8 enb vdd 0.448382f
C9 out vg 0.04429f
C10 vbsh vbsl 0.035648f
C11 vbsl in 0.299565f
C12 out vbsl 0.058082f
C13 vbsh enb 0.079647f
C14 vbsh vdd 0.216342f
C15 vs vg 0.01049f
C16 out vdd 0.017908f
C17 vbsl vg 0.046114f
C18 enb en 0.025502f
C19 vbsl vs 0.001422f
C20 vbsh in 0.008752f
C21 en vdd 0.062309f
C22 vs vss 0.072259f
C23 enb vss 1.595622f
C24 en vss 0.636177f
C25 out vss 1.088543f
C26 vdd vss 3.10752f
C27 vg vss 1.218874f
C28 vbsh vss 9.044386f
C29 vbsl vss 8.368301f
C30 in vss 0.308876f
.ends

.subckt dacp dum ctl7 ctl8 ctl9 ctl10 in sample ctl2 ctl1 carray_p_0/n0 carray_p_0/ndum
+ ctl4 ctl6 bootstrapped_sw_p_0/enb out bootstrapped_sw_p_0/vbsl ctl3 bootstrapped_sw_p_0/vg
+ bootstrapped_sw_p_0/vbsh carray_p_0/n8 carray_p_0/n9 ctl5 vdd vss
Xinv_renketu_p_0 ctl6 carray_p_0/n8 carray_p_0/n5 carray_p_0/n1 carray_p_0/ndum dum
+ ctl9 ctl3 carray_p_0/n7 carray_p_0/n0 carray_p_0/n4 ctl5 ctl10 carray_p_0/n9 ctl7
+ ctl2 ctl8 carray_p_0/n6 carray_p_0/n3 carray_p_0/n2 ctl1 ctl4 vss vdd inv_renketu_p
Xbootstrapped_sw_p_0 in vss sample bootstrapped_sw_p_0/enb bootstrapped_sw_p_0/vs
+ bootstrapped_sw_p_0/vg vdd out bootstrapped_sw_p_0/vbsh bootstrapped_sw_p_0/vbsl
+ bootstrapped_sw_p
C0 out carray_p_0/n8 0.420152p
C1 carray_p_0/n5 vdd 0.002151f
C2 out carray_p_0/n9 0.846161p
C3 carray_p_0/n5 carray_p_0/n2 0.208112f
C4 carray_p_0/ndum carray_p_0/n7 0.06073f
C5 vdd carray_p_0/n2 0.002151f
C6 carray_p_0/ndum carray_p_0/n4 0.025424f
C7 carray_p_0/n8 carray_p_0/n7 50.514606f
C8 carray_p_0/n9 carray_p_0/n7 29.51607f
C9 ctl7 ctl6 0.104537f
C10 ctl3 ctl4 0.104537f
C11 carray_p_0/n6 out 0.105055p
C12 carray_p_0/n8 carray_p_0/n4 2.84323f
C13 out carray_p_0/n3 13.201303f
C14 carray_p_0/n9 carray_p_0/n4 3.740571f
C15 ctl5 ctl4 0.104537f
C16 ctl9 ctl8 0.104537f
C17 bootstrapped_sw_p_0/vbsh out 0.137967f
C18 carray_p_0/n0 out 1.750611f
C19 carray_p_0/n1 out 3.367623f
C20 ctl10 ctl9 0.104537f
C21 carray_p_0/n6 carray_p_0/n7 34.66261f
C22 carray_p_0/n8 carray_p_0/ndum 0.097254f
C23 carray_p_0/n9 carray_p_0/ndum 0.127951f
C24 carray_p_0/n7 carray_p_0/n3 0.891504f
C25 sample carray_p_0/ndum 0.045492f
C26 carray_p_0/n5 out 52.565495f
C27 carray_p_0/n6 carray_p_0/n4 0.614078f
C28 carray_p_0/n0 carray_p_0/n7 0.06073f
C29 carray_p_0/n1 carray_p_0/n7 0.212822f
C30 carray_p_0/n4 carray_p_0/n3 26.229404f
C31 ctl2 ctl1 0.104537f
C32 carray_p_0/n9 carray_p_0/n8 87.43916f
C33 carray_p_0/n0 carray_p_0/n4 0.040502f
C34 carray_p_0/n1 carray_p_0/n4 0.142475f
C35 out carray_p_0/n2 6.640605f
C36 carray_p_0/n5 carray_p_0/n7 3.36878f
C37 carray_p_0/n6 carray_p_0/ndum 0.025424f
C38 carray_p_0/ndum carray_p_0/n3 0.025424f
C39 carray_p_0/n5 carray_p_0/n4 27.828503f
C40 carray_p_0/n6 carray_p_0/n8 11.2161f
C41 carray_p_0/n6 carray_p_0/n9 14.716781f
C42 carray_p_0/n1 carray_p_0/ndum 8.4982f
C43 vdd carray_p_0/n7 0.002151f
C44 carray_p_0/n8 carray_p_0/n3 1.46111f
C45 carray_p_0/n9 carray_p_0/n3 1.911225f
C46 carray_p_0/n7 carray_p_0/n2 0.485355f
C47 carray_p_0/n0 carray_p_0/n8 0.097254f
C48 vdd carray_p_0/n4 0.002151f
C49 carray_p_0/n1 carray_p_0/n8 0.28587f
C50 carray_p_0/n0 carray_p_0/n9 0.521489f
C51 carray_p_0/n1 carray_p_0/n9 0.350042f
C52 carray_p_0/n4 carray_p_0/n2 0.213209f
C53 carray_p_0/n5 carray_p_0/ndum 0.025424f
C54 ctl2 ctl3 0.104537f
C55 carray_p_0/n5 carray_p_0/n8 5.60732f
C56 carray_p_0/n5 carray_p_0/n9 7.39935f
C57 ctl7 ctl8 0.104537f
C58 carray_p_0/n6 carray_p_0/n3 0.336612f
C59 vdd carray_p_0/ndum 0.004405f
C60 carray_p_0/n6 carray_p_0/n0 0.025424f
C61 carray_p_0/ndum carray_p_0/n2 0.041162f
C62 carray_p_0/n6 carray_p_0/n1 0.142211f
C63 carray_p_0/n8 vdd 0.002151f
C64 carray_p_0/n0 carray_p_0/n3 0.051666f
C65 carray_p_0/n9 vdd 0.002151f
C66 carray_p_0/n1 carray_p_0/n3 0.145048f
C67 carray_p_0/n8 carray_p_0/n2 0.770227f
C68 carray_p_0/n1 carray_p_0/n0 8.476913f
C69 carray_p_0/n9 carray_p_0/n2 0.996681f
C70 carray_p_0/n5 carray_p_0/n6 28.925903f
C71 out carray_p_0/n7 0.210032p
C72 carray_p_0/n5 carray_p_0/n3 0.346757f
C73 carray_p_0/n5 carray_p_0/n0 0.025424f
C74 out carray_p_0/n4 26.32268f
C75 carray_p_0/n5 carray_p_0/n1 0.142354f
C76 carray_p_0/n6 vdd 0.002151f
C77 vdd carray_p_0/n3 0.002151f
C78 dum ctl1 0.104537f
C79 carray_p_0/n6 carray_p_0/n2 0.20799f
C80 bootstrapped_sw_p_0/vbsl out 0.061234f
C81 carray_p_0/n0 vdd 0.002151f
C82 carray_p_0/n3 carray_p_0/n2 23.177216f
C83 carray_p_0/n1 vdd 0.002151f
C84 carray_p_0/n0 carray_p_0/n2 0.099314f
C85 carray_p_0/n1 carray_p_0/n2 16.941956f
C86 out carray_p_0/ndum 1.640173f
C87 carray_p_0/n7 carray_p_0/n4 1.70387f
C88 ctl6 ctl5 0.104537f
C89 carray_p_0/n2 vss 30.239845f
C90 carray_p_0/n3 vss 33.722244f
C91 carray_p_0/n4 vss 39.983227f
C92 carray_p_0/n5 vss 47.48966f
C93 carray_p_0/n9 vss 14.559587f
C94 out vss -0.683569p
C95 carray_p_0/n8 vss 40.389835f
C96 carray_p_0/n7 vss 57.16868f
C97 carray_p_0/n6 vss 53.444874f
C98 carray_p_0/n0 vss 17.398035f
C99 carray_p_0/n1 vss 16.427063f
C100 bootstrapped_sw_p_0/vs vss 0.065021f
C101 bootstrapped_sw_p_0/enb vss 1.52928f
C102 sample vss 20.507322f
C103 bootstrapped_sw_p_0/vg vss 1.162193f
C104 bootstrapped_sw_p_0/vbsh vss 9.037161f
C105 bootstrapped_sw_p_0/vbsl vss 8.446682f
C106 in vss 0.297821f
C107 ctl9 vss 0.916847f
C108 ctl8 vss 0.916847f
C109 ctl7 vss 0.916847f
C110 ctl6 vss 0.916847f
C111 ctl5 vss 0.916847f
C112 ctl4 vss 0.916847f
C113 ctl3 vss 0.916847f
C114 ctl1 vss 0.916847f
C115 vdd vss 19.487324f
C116 ctl10 vss 1.146163f
C117 ctl2 vss 0.916847f
C118 carray_p_0/ndum vss 14.881927f
C119 dum vss 1.125528f
.ends

.subckt XM0_trim_right G D a_n484_399# a_n484_895# S
X0 S G D a_n484_399# nfet_03v3 ad=0.44p pd=2.88u as=0.44p ps=2.88u w=1u l=0.28u
C0 D S 0.14243f
C1 G S 0.005902f
C2 G D 0.011845f
C3 S a_n484_399# 0.098801f
C4 D a_n484_399# 0.215099f
C5 G a_n484_399# 0.21851f
.ends

.subckt XM1_trim_right G D a_n484_399# a_n484_895# S
X0 D G S a_n484_399# nfet_03v3 ad=0.44p pd=2.88u as=0.44p ps=2.88u w=1u l=0.28u
C0 S D 0.075352f
C1 G D 0.011845f
C2 G S 0.001764f
C3 D a_n484_399# 0.24117f
C4 S a_n484_399# 0.057381f
C5 G a_n484_399# 0.21851f
.ends

.subckt XM2_trim_right G D a_n375_n620# a_n375_n1116# S
X0 D G S a_n375_n1116# nfet_03v3 ad=0.44p pd=2.88u as=0.26p ps=1.52u w=1u l=0.28u
X1 S G D a_n375_n1116# nfet_03v3 ad=0.26p pd=1.52u as=0.44p ps=2.88u w=1u l=0.28u
C0 S D 0.263094f
C1 G D 0.011804f
C2 G S 0.011804f
C3 D a_n375_n1116# 0.365155f
C4 S a_n375_n1116# 0.043869f
C5 G a_n375_n1116# 0.382504f
.ends

.subckt XM3_trim_right G D a_n778_n975# S
X0 D G S a_n778_n975# nfet_03v3 ad=0.26p pd=1.52u as=0.26p ps=1.52u w=1u l=0.28u
X1 S G D a_n778_n975# nfet_03v3 ad=0.26p pd=1.52u as=0.26p ps=1.52u w=1u l=0.28u
X2 D G S a_n778_n975# nfet_03v3 ad=0.44p pd=2.88u as=0.26p ps=1.52u w=1u l=0.28u
X3 S G D a_n778_n975# nfet_03v3 ad=0.26p pd=1.52u as=0.44p ps=2.88u w=1u l=0.28u
C0 S G 0.023608f
C1 D G 0.023608f
C2 S D 0.526188f
C3 D a_n778_n975# 0.557521f
C4 S a_n778_n975# 0.087739f
C5 G a_n778_n975# 0.718155f
.ends

.subckt XM4_trim_right G D a_1072_n1100# S
X0 S G D a_1072_n1100# nfet_03v3 ad=0.26p pd=1.52u as=0.26p ps=1.52u w=1u l=0.28u
X1 S G D a_1072_n1100# nfet_03v3 ad=0.26p pd=1.52u as=0.26p ps=1.52u w=1u l=0.28u
X2 D G S a_1072_n1100# nfet_03v3 ad=0.26p pd=1.52u as=0.26p ps=1.52u w=1u l=0.28u
X3 S G D a_1072_n1100# nfet_03v3 ad=0.26p pd=1.52u as=0.26p ps=1.52u w=1u l=0.28u
X4 S G D a_1072_n1100# nfet_03v3 ad=0.44p pd=2.88u as=0.26p ps=1.52u w=1u l=0.28u
X5 D G S a_1072_n1100# nfet_03v3 ad=0.26p pd=1.52u as=0.44p ps=2.88u w=1u l=0.28u
X6 D G S a_1072_n1100# nfet_03v3 ad=0.26p pd=1.52u as=0.26p ps=1.52u w=1u l=0.28u
X7 D G S a_1072_n1100# nfet_03v3 ad=0.26p pd=1.52u as=0.26p ps=1.52u w=1u l=0.28u
C0 D G 0.047215f
C1 S G 0.047215f
C2 D S 1.052376f
C3 S a_1072_n1100# 0.425359f
C4 D a_1072_n1100# 0.448822f
C5 G a_1072_n1100# 1.37423f
.ends

.subckt trim_switch_right XM3_trim_right_0/D XM0_trim_right_0/G XM4_trim_right_0/G
+ XM0_trim_right_0/D XM4_trim_right_0/D XM1_trim_right_0/G XM1_trim_right_0/D XM2_trim_right_0/G
+ XM2_trim_right_0/D XM3_trim_right_0/G VSUBS
XXM0_trim_right_0 XM0_trim_right_0/G XM0_trim_right_0/D VSUBS VSUBS VSUBS XM0_trim_right
XXM1_trim_right_0 XM1_trim_right_0/G XM1_trim_right_0/D VSUBS VSUBS VSUBS XM1_trim_right
XXM2_trim_right_0 XM2_trim_right_0/G XM2_trim_right_0/D VSUBS VSUBS VSUBS XM2_trim_right
XXM3_trim_right_0 XM3_trim_right_0/G XM3_trim_right_0/D VSUBS VSUBS XM3_trim_right
XXM4_trim_right_0 XM4_trim_right_0/G XM4_trim_right_0/D VSUBS VSUBS XM4_trim_right
C0 XM0_trim_right_0/D XM2_trim_right_0/D 0.039382f
C1 XM1_trim_right_0/D XM1_trim_right_0/G 0.07096f
C2 XM0_trim_right_0/G XM2_trim_right_0/G 0.041018f
C3 XM4_trim_right_0/D XM4_trim_right_0/G 0.272119f
C4 XM3_trim_right_0/G XM3_trim_right_0/D 0.092062f
C5 XM0_trim_right_0/D XM1_trim_right_0/D 0.027386f
C6 XM3_trim_right_0/G XM2_trim_right_0/G 0.027949f
C7 XM0_trim_right_0/G XM1_trim_right_0/G 0.123582f
C8 XM0_trim_right_0/G XM0_trim_right_0/D 0.07096f
C9 XM4_trim_right_0/D XM1_trim_right_0/D 0.00859f
C10 XM2_trim_right_0/D XM3_trim_right_0/D 0.040124f
C11 XM2_trim_right_0/G XM2_trim_right_0/D 0.014034f
C12 XM1_trim_right_0/G XM4_trim_right_0/G 0.02663f
C13 XM4_trim_right_0/D VSUBS 1.278621f
C14 XM4_trim_right_0/G VSUBS 1.959711f
C15 XM3_trim_right_0/D VSUBS 1.12292f
C16 XM3_trim_right_0/G VSUBS 1.128649f
C17 XM2_trim_right_0/D VSUBS 0.604021f
C18 XM2_trim_right_0/G VSUBS 0.637566f
C19 XM1_trim_right_0/D VSUBS 0.42776f
C20 XM1_trim_right_0/G VSUBS 0.407201f
C21 XM0_trim_right_0/D VSUBS 0.314559f
C22 XM0_trim_right_0/G VSUBS 0.388025f
.ends

.subckt trim_right d_4 d_1 d_0 d_2 d_3 trim_switch_right_0/XM3_trim_right_0/D trim_switch_right_0/XM2_trim_right_0/D
+ trim_switch_right_0/XM4_trim_right_0/D VSUBS ip
Xtrim_switch_right_0 trim_switch_right_0/XM3_trim_right_0/D d_0 d_4 trim_switch_right_0/XM0_trim_right_0/D
+ trim_switch_right_0/XM4_trim_right_0/D d_1 trim_switch_right_0/XM1_trim_right_0/D
+ d_2 trim_switch_right_0/XM2_trim_right_0/D d_3 VSUBS trim_switch_right
C0 trim_switch_right_0/XM4_trim_right_0/D ip 12.877382f
C1 trim_switch_right_0/XM2_trim_right_0/D trim_switch_right_0/XM1_trim_right_0/D 0.081094f
C2 d_4 trim_switch_right_0/XM2_trim_right_0/D 0.00312f
C3 trim_switch_right_0/XM3_trim_right_0/D trim_switch_right_0/XM0_trim_right_0/D 0.087807f
C4 ip trim_switch_right_0/XM2_trim_right_0/D 3.213024f
C5 trim_switch_right_0/XM4_trim_right_0/D trim_switch_right_0/XM3_trim_right_0/D 1.600475f
C6 d_0 trim_switch_right_0/XM2_trim_right_0/D 0.002632f
C7 ip trim_switch_right_0/XM1_trim_right_0/D 1.60623f
C8 trim_switch_right_0/XM4_trim_right_0/D trim_switch_right_0/XM0_trim_right_0/D 0.166348f
C9 trim_switch_right_0/XM3_trim_right_0/D trim_switch_right_0/XM2_trim_right_0/D 0.58337f
C10 trim_switch_right_0/XM2_trim_right_0/D trim_switch_right_0/XM0_trim_right_0/D 0.103369f
C11 trim_switch_right_0/XM3_trim_right_0/D trim_switch_right_0/XM1_trim_right_0/D 0.087807f
C12 trim_switch_right_0/XM1_trim_right_0/D trim_switch_right_0/XM0_trim_right_0/D 0.520979f
C13 trim_switch_right_0/XM4_trim_right_0/D trim_switch_right_0/XM2_trim_right_0/D 0.596682f
C14 trim_switch_right_0/XM4_trim_right_0/D trim_switch_right_0/XM1_trim_right_0/D 0.169398f
C15 ip trim_switch_right_0/XM3_trim_right_0/D 6.427485f
C16 d_1 trim_switch_right_0/XM2_trim_right_0/D 0.003137f
C17 ip trim_switch_right_0/XM0_trim_right_0/D 1.60623f
C18 d_0 trim_switch_right_0/XM0_trim_right_0/D 0.004139f
C19 d_1 trim_switch_right_0/XM1_trim_right_0/D 0.003099f
C20 d_4 VSUBS 1.64786f
C21 d_3 VSUBS 0.927186f
C22 d_2 VSUBS 0.513348f
C23 d_1 VSUBS 0.345562f
C24 d_0 VSUBS 0.33412f
C25 trim_switch_right_0/XM0_trim_right_0/D VSUBS 0.689164f
C26 trim_switch_right_0/XM1_trim_right_0/D VSUBS 0.727243f
C27 trim_switch_right_0/XM4_trim_right_0/D VSUBS 4.36705f
C28 ip VSUBS -5.906306f
C29 trim_switch_right_0/XM3_trim_right_0/D VSUBS 3.463846f
C30 trim_switch_right_0/XM2_trim_right_0/D VSUBS 2.037146f
.ends

.subckt XMdiff_com G D a_439_n1281# S
X0 D G S a_439_n1281# nfet_03v3 ad=0.26p pd=1.52u as=0.44p ps=2.88u w=1u l=0.28u
X1 S G D a_439_n1281# nfet_03v3 ad=0.44p pd=2.88u as=0.26p ps=1.52u w=1u l=0.28u
C0 S G 0.003527f
C1 S D 0.137081f
C2 G D 0.003527f
C3 S a_439_n1281# 0.230614f
C4 D a_439_n1281# 0.02923f
C5 G a_439_n1281# 0.382694f
.ends

.subckt XMinp_com a_251_n1284# G D a_251_n788# S
X0 D G S a_251_n1284# nfet_03v3 ad=0.44p pd=2.88u as=0.44p ps=2.88u w=1u l=0.28u
C0 S D 0.06854f
C1 S G 0.001764f
C2 G D 0.001764f
C3 D a_251_n1284# 0.057707f
C4 S a_251_n1284# 0.057707f
C5 G a_251_n1284# 0.21851f
.ends

.subckt XMl4_com G D S w_n198_790# VSUBS
X0 D G S w_n198_790# pfet_03v3 ad=0.44p pd=2.88u as=0.44p ps=2.88u w=1u l=0.28u
C0 S D 0.06854f
C1 S w_n198_790# 0.008358f
C2 w_n198_790# D 0.010275f
C3 S G 0.001764f
C4 G D 0.001764f
C5 w_n198_790# G 0.131025f
C6 D VSUBS 0.047486f
C7 S VSUBS 0.049403f
C8 G VSUBS 0.087507f
C9 w_n198_790# VSUBS 1.54752f
.ends

.subckt XM4_com G D w_1022_790# S VSUBS
X0 D G S w_1022_790# pfet_03v3 ad=0.44p pd=2.88u as=0.44p ps=2.88u w=1u l=0.28u
C0 S D 0.06854f
C1 S w_1022_790# 0.021497f
C2 w_1022_790# D 0.022441f
C3 S G 0.001764f
C4 G D 0.001764f
C5 w_1022_790# G 0.132558f
C6 D VSUBS 0.043675f
C7 S VSUBS 0.043675f
C8 G VSUBS 0.08816f
C9 w_1022_790# VSUBS 1.17557f
.ends

.subckt XMl3_com G D w_n634_790# S VSUBS
X0 S G D w_n634_790# pfet_03v3 ad=0.44p pd=2.88u as=0.44p ps=2.88u w=1u l=0.28u
C0 D S 0.06854f
C1 D w_n634_790# 0.024248f
C2 w_n634_790# S 0.021497f
C3 D G 0.001764f
C4 G S 0.001764f
C5 w_n634_790# G 0.139286f
C6 S VSUBS 0.043675f
C7 D VSUBS 0.041759f
C8 G VSUBS 0.081314f
C9 w_n634_790# VSUBS 1.68331f
.ends

.subckt XM3_com G D w_n509_n1092# S VSUBS
X0 S G D w_n509_n1092# pfet_03v3 ad=0.44p pd=2.88u as=0.44p ps=2.88u w=1u l=0.28u
C0 D S 0.06854f
C1 D w_n509_n1092# 0.010275f
C2 w_n509_n1092# S 0.008358f
C3 D G 0.001764f
C4 G S 0.001764f
C5 w_n509_n1092# G 0.131025f
C6 S VSUBS 0.049403f
C7 D VSUBS 0.047486f
C8 G VSUBS 0.087507f
C9 w_n509_n1092# VSUBS 1.54752f
.ends

.subckt XMinn_com G a_719_n1284# D S a_719_n788#
X0 S G D a_719_n1284# nfet_03v3 ad=0.44p pd=2.88u as=0.44p ps=2.88u w=1u l=0.28u
C0 D S 0.06854f
C1 D G 0.001764f
C2 G S 0.001764f
C3 S a_719_n1284# 0.057707f
C4 D a_719_n1284# 0.057707f
C5 G a_719_n1284# 0.21851f
.ends

.subckt XM4_trim_left G D a_1072_n1100# S
X0 S G D a_1072_n1100# nfet_03v3 ad=0.26p pd=1.52u as=0.26p ps=1.52u w=1u l=0.28u
X1 S G D a_1072_n1100# nfet_03v3 ad=0.26p pd=1.52u as=0.26p ps=1.52u w=1u l=0.28u
X2 D G S a_1072_n1100# nfet_03v3 ad=0.26p pd=1.52u as=0.26p ps=1.52u w=1u l=0.28u
X3 S G D a_1072_n1100# nfet_03v3 ad=0.26p pd=1.52u as=0.26p ps=1.52u w=1u l=0.28u
X4 S G D a_1072_n1100# nfet_03v3 ad=0.44p pd=2.88u as=0.26p ps=1.52u w=1u l=0.28u
X5 D G S a_1072_n1100# nfet_03v3 ad=0.26p pd=1.52u as=0.44p ps=2.88u w=1u l=0.28u
X6 D G S a_1072_n1100# nfet_03v3 ad=0.26p pd=1.52u as=0.26p ps=1.52u w=1u l=0.28u
X7 D G S a_1072_n1100# nfet_03v3 ad=0.26p pd=1.52u as=0.26p ps=1.52u w=1u l=0.28u
C0 S G 0.047215f
C1 S D 1.052376f
C2 G D 0.047215f
C3 S a_1072_n1100# 0.425359f
C4 D a_1072_n1100# 0.448822f
C5 G a_1072_n1100# 1.37423f
.ends

.subckt XM3_trim_left G D a_n778_n975# S
X0 D G S a_n778_n975# nfet_03v3 ad=0.26p pd=1.52u as=0.26p ps=1.52u w=1u l=0.28u
X1 S G D a_n778_n975# nfet_03v3 ad=0.26p pd=1.52u as=0.26p ps=1.52u w=1u l=0.28u
X2 D G S a_n778_n975# nfet_03v3 ad=0.44p pd=2.88u as=0.26p ps=1.52u w=1u l=0.28u
X3 S G D a_n778_n975# nfet_03v3 ad=0.26p pd=1.52u as=0.44p ps=2.88u w=1u l=0.28u
C0 D G 0.023608f
C1 D S 0.526188f
C2 G S 0.023608f