* NGSPICE file created from dac_in.ext - technology: gf180mcuD

.subckt dac_in inputp inputm vss vdd input_signal[0] input_signal[1] input_signal[2]
+ input_signal[3] input_signal[4] input_signal[5] input_signal[6] input_signal[7]
+ input_signal[8] input_signal[9]
Xphase_inverter_0 input_signal[0] input_signal[1] input_signal[2] input_signal[3]
+ input_signal[4] input_signal[5] input_signal[9] carray_in_1/n0 carray_in_1/n1 carray_in_1/n2
+ carray_in_1/n3 carray_in_1/n4 carray_in_1/n5 carray_in_1/n6 carray_in_1/n7 carray_in_1/n8
+ carray_in_1/n9 carray_in_0/n0 carray_in_0/n1 carray_in_0/n2 carray_in_0/n3 carray_in_0/n4
+ carray_in_0/n5 carray_in_0/n6 carray_in_0/n7 input_signal[7] input_signal[8] carray_in_0/n9
+ input_signal[6] carray_in_0/n8 vdd vss phase_inverter
C0 carray_in_1/n3 carray_in_1/n6 0.339322f
C1 vdd carray_in_0/n0 0.177806f
C2 carray_in_1/n9 carray_in_1/n4 3.741774f
C3 carray_in_1/n5 carray_in_1/n6 29.200403f
C4 vdd carray_in_1/n0 0.193605f
C5 inputp carray_in_0/n7 0.209952p
C6 carray_in_0/n1 carray_in_0/n8 0.333459f
C7 inputp carray_in_0/n3 13.12139f
C8 inputp carray_in_0/n9 0.846091p
C9 carray_in_0/n1 carray_in_1/n1 5.901133f
C10 carray_in_1/n4 carray_in_1/n6 0.617028f
C11 carray_in_1/n8 carray_in_1/n2 0.772498f
C12 carray_in_0/n4 carray_in_0/n7 1.70684f
C13 carray_in_0/n5 carray_in_0/n7 3.37237f
C14 carray_in_1/n8 carray_in_1/n7 50.742203f
C15 carray_in_0/n1 carray_in_0/n6 0.145088f
C16 carray_in_0/n5 carray_in_0/n3 0.350346f
C17 carray_in_0/n4 carray_in_0/n3 26.505903f
C18 carray_in_0/n4 carray_in_0/n9 3.741774f
C19 carray_in_0/n5 carray_in_0/n9 7.400846f
C20 vdd carray_in_0/n9 0.358842f
C21 carray_in_1/n8 carray_in_1/n1 0.333459f
C22 carray_in_0/n8 carray_in_0/n2 0.772498f
C23 carray_in_1/n3 carray_in_1/n2 23.465405f
C24 inputm carray_in_1/n8 0.420079p
C25 carray_in_1/n3 carray_in_1/n7 0.894213f
C26 carray_in_1/n5 carray_in_1/n2 0.210974f
C27 carray_in_0/n6 carray_in_0/n2 0.210444f
C28 carray_in_1/n0 carray_in_1/n1 8.401715f
C29 carray_in_1/n5 carray_in_1/n7 3.37237f
C30 carray_in_1/n9 carray_in_1/n6 14.718489f
C31 carray_in_1/n3 carray_in_1/n1 0.148119f
C32 carray_in_1/n5 carray_in_1/n1 0.145556f
C33 inputm carray_in_1/n0 1.640173f
C34 carray_in_1/n4 carray_in_1/n2 0.215946f
C35 carray_in_1/n9 vdd 0.348295f
C36 carray_in_1/n4 carray_in_1/n7 1.70684f
C37 carray_in_0/n8 carray_in_0/n7 50.742203f
C38 inputm carray_in_1/n3 13.12139f
C39 carray_in_0/n8 carray_in_0/n3 1.46349f
C40 carray_in_0/n8 carray_in_0/n9 87.65757f
C41 inputm carray_in_1/n5 52.485596f
C42 carray_in_1/n4 carray_in_1/n1 0.145617f
C43 carray_in_0/n6 carray_in_0/n7 34.900005f
C44 inputp carray_in_0/n5 52.485596f
C45 inputp carray_in_0/n4 26.242765f
C46 carray_in_0/n6 carray_in_0/n3 0.339322f
C47 carray_in_0/n6 carray_in_0/n9 14.718489f
C48 carray_in_0/n5 carray_in_0/n4 28.094206f
C49 carray_in_0/n1 carray_in_0/n2 15.574605f
C50 inputm carray_in_1/n4 26.242765f
C51 carray_in_0/n1 carray_in_0/n0 8.401715f
C52 carray_in_1/n9 carray_in_1/n2 0.997758f
C53 carray_in_1/n9 carray_in_1/n7 29.520088f
C54 carray_in_1/n9 carray_in_1/n1 0.39415f
C55 carray_in_1/n2 carray_in_1/n6 0.210444f
C56 carray_in_1/n7 carray_in_1/n6 34.900005f
C57 carray_in_0/n1 carray_in_0/n7 0.243006f
C58 carray_in_1/n3 carray_in_1/n8 1.46349f
C59 carray_in_1/n9 inputm 0.846091p
C60 carray_in_0/n1 carray_in_0/n3 0.148119f
C61 carray_in_0/n1 carray_in_0/n9 0.39415f
C62 carray_in_1/n5 carray_in_1/n8 5.6103f
C63 inputp carray_in_0/n8 0.420079p
C64 carray_in_1/n1 carray_in_1/n6 0.145088f
C65 carray_in_0/n8 carray_in_0/n4 2.84594f
C66 carray_in_0/n8 carray_in_0/n5 5.6103f
C67 inputp carray_in_0/n6 0.104976p
C68 carray_in_1/n4 carray_in_1/n8 2.84594f
C69 vdd carray_in_0/n8 0.117452f
C70 inputm carray_in_1/n6 0.104976p
C71 carray_in_0/n7 carray_in_0/n2 0.487626f
C72 carray_in_0/n5 carray_in_0/n6 29.200403f
C73 carray_in_0/n6 carray_in_0/n4 0.617028f
C74 carray_in_0/n3 carray_in_0/n2 23.465405f
C75 carray_in_0/n9 carray_in_0/n2 0.997758f
C76 carray_in_0/n0 carray_in_0/n9 0.82611f
C77 carray_in_1/n3 carray_in_1/n5 0.350346f
C78 carray_in_1/n2 carray_in_1/n7 0.487626f
C79 carray_in_1/n3 carray_in_1/n4 26.505903f
C80 carray_in_1/n4 carray_in_1/n5 28.094206f
C81 carray_in_1/n9 carray_in_1/n8 87.65758f
C82 carray_in_1/n2 carray_in_1/n1 15.574605f
C83 carray_in_0/n3 carray_in_0/n7 0.894213f
C84 carray_in_1/n1 carray_in_1/n7 0.243006f
C85 carray_in_0/n9 carray_in_0/n7 29.520088f
C86 carray_in_0/n1 inputp 3.280347f
C87 carray_in_0/n3 carray_in_0/n9 1.912414f
C88 inputm carray_in_1/n2 6.560692f
C89 carray_in_0/n1 carray_in_0/n5 0.145556f
C90 carray_in_0/n1 carray_in_0/n4 0.145617f
C91 inputm carray_in_1/n7 0.209952p
C92 carray_in_1/n9 carray_in_1/n0 0.82611f
C93 carray_in_0/n8 carray_in_0/n6 11.2197f
C94 carray_in_1/n8 carray_in_1/n6 11.2197f
C95 carray_in_1/n9 carray_in_1/n3 1.912414f
C96 inputm carray_in_1/n1 3.280347f
C97 inputp carray_in_0/n2 6.560692f
C98 inputp carray_in_0/n0 1.640173f
C99 carray_in_1/n9 carray_in_1/n5 7.400846f
C100 carray_in_0/n5 carray_in_0/n2 0.210974f
C101 carray_in_0/n4 carray_in_0/n2 0.215946f
C102 phase_inverter_0/_19_/Z vss 1.174253f
C103 phase_inverter_0/output30/a_224_472# vss 2.386102f
C104 phase_inverter_0/FILLER_0_1_60/a_484_472# vss 0.345058f $ **FLOATING
C105 phase_inverter_0/FILLER_0_1_60/a_36_472# vss 0.404746f
C106 phase_inverter_0/FILLER_0_1_60/a_572_375# vss 0.232991f
C107 phase_inverter_0/FILLER_0_1_60/a_124_375# vss 0.185089f $ **FLOATING
C108 phase_inverter_0/FILLER_0_0_28/a_36_472# vss 0.417394f
C109 phase_inverter_0/FILLER_0_0_28/a_124_375# vss 0.246306f $ **FLOATING
C110 phase_inverter_0/FILLER_0_13_72/a_3172_472# vss 0.345058f $ **FLOATING
C111 phase_inverter_0/FILLER_0_13_72/a_2724_472# vss 0.33241f $ **FLOATING
C112 phase_inverter_0/FILLER_0_13_72/a_2276_472# vss 0.33241f $ **FLOATING
C113 phase_inverter_0/FILLER_0_13_72/a_1828_472# vss 0.33241f $ **FLOATING
C114 phase_inverter_0/FILLER_0_13_72/a_1380_472# vss 0.33241f $ **FLOATING
C115 phase_inverter_0/FILLER_0_13_72/a_932_472# vss 0.33241f $ **FLOATING
C116 phase_inverter_0/FILLER_0_13_72/a_484_472# vss 0.33241f $ **FLOATING
C117 phase_inverter_0/FILLER_0_13_72/a_36_472# vss 0.404746f
C118 phase_inverter_0/FILLER_0_13_72/a_3260_375# vss 0.233093f $ **FLOATING
C119 phase_inverter_0/FILLER_0_13_72/a_2812_375# vss 0.17167f $ **FLOATING
C120 phase_inverter_0/FILLER_0_13_72/a_2364_375# vss 0.17167f $ **FLOATING
C121 phase_inverter_0/FILLER_0_13_72/a_1916_375# vss 0.17167f $ **FLOATING
C122 phase_inverter_0/FILLER_0_13_72/a_1468_375# vss 0.17167f $ **FLOATING
C123 phase_inverter_0/FILLER_0_13_72/a_1020_375# vss 0.17167f $ **FLOATING
C124 phase_inverter_0/FILLER_0_13_72/a_572_375# vss 0.17167f $ **FLOATING
C125 phase_inverter_0/FILLER_0_13_72/a_124_375# vss 0.185915f $ **FLOATING
C126 phase_inverter_0/FILLER_0_2_107/a_1380_472# vss 0.345058f $ **FLOATING
C127 phase_inverter_0/FILLER_0_2_107/a_932_472# vss 0.33241f $ **FLOATING
C128 phase_inverter_0/FILLER_0_2_107/a_484_472# vss 0.33241f $ **FLOATING
C129 phase_inverter_0/FILLER_0_2_107/a_36_472# vss 0.404746f
C130 phase_inverter_0/FILLER_0_2_107/a_1468_375# vss 0.233029f
C131 phase_inverter_0/FILLER_0_2_107/a_1020_375# vss 0.171606f $ **FLOATING
C132 phase_inverter_0/FILLER_0_2_107/a_572_375# vss 0.171606f $ **FLOATING
C133 phase_inverter_0/FILLER_0_2_107/a_124_375# vss 0.185399f $ **FLOATING
C134 phase_inverter_0/FILLER_0_5_104/a_484_472# vss 0.345058f $ **FLOATING
C135 phase_inverter_0/FILLER_0_5_104/a_36_472# vss 0.404746f
C136 phase_inverter_0/FILLER_0_5_104/a_572_375# vss 0.232991f
C137 phase_inverter_0/FILLER_0_5_104/a_124_375# vss 0.185089f $ **FLOATING
C138 phase_inverter_0/FILLER_0_6_37/a_6756_472# vss 0.345058f $ **FLOATING
C139 phase_inverter_0/FILLER_0_6_37/a_6308_472# vss 0.33241f $ **FLOATING
C140 phase_inverter_0/FILLER_0_6_37/a_5860_472# vss 0.33241f $ **FLOATING
C141 phase_inverter_0/FILLER_0_6_37/a_5412_472# vss 0.33241f $ **FLOATING
C142 phase_inverter_0/FILLER_0_6_37/a_4964_472# vss 0.33241f $ **FLOATING
C143 phase_inverter_0/FILLER_0_6_37/a_4516_472# vss 0.33241f $ **FLOATING
C144 phase_inverter_0/FILLER_0_6_37/a_4068_472# vss 0.33241f $ **FLOATING
C145 phase_inverter_0/FILLER_0_6_37/a_3620_472# vss 0.33241f $ **FLOATING
C146 phase_inverter_0/FILLER_0_6_37/a_3172_472# vss 0.33241f $ **FLOATING
C147 phase_inverter_0/FILLER_0_6_37/a_2724_472# vss 0.33241f $ **FLOATING
C148 phase_inverter_0/FILLER_0_6_37/a_2276_472# vss 0.33241f $ **FLOATING
C149 phase_inverter_0/FILLER_0_6_37/a_1828_472# vss 0.33241f $ **FLOATING
C150 phase_inverter_0/FILLER_0_6_37/a_1380_472# vss 0.33241f $ **FLOATING
C151 phase_inverter_0/FILLER_0_6_37/a_932_472# vss 0.33241f $ **FLOATING
C152 phase_inverter_0/FILLER_0_6_37/a_484_472# vss 0.33241f $ **FLOATING
C153 phase_inverter_0/FILLER_0_6_37/a_36_472# vss 0.404746f
C154 phase_inverter_0/FILLER_0_6_37/a_6844_375# vss 0.233068f $ **FLOATING
C155 phase_inverter_0/FILLER_0_6_37/a_6396_375# vss 0.171644f $ **FLOATING
C156 phase_inverter_0/FILLER_0_6_37/a_5948_375# vss 0.171644f $ **FLOATING
C157 phase_inverter_0/FILLER_0_6_37/a_5500_375# vss 0.171644f $ **FLOATING
C158 phase_inverter_0/FILLER_0_6_37/a_5052_375# vss 0.171644f $ **FLOATING
C159 phase_inverter_0/FILLER_0_6_37/a_4604_375# vss 0.171644f $ **FLOATING
C160 phase_inverter_0/FILLER_0_6_37/a_4156_375# vss 0.171644f $ **FLOATING
C161 phase_inverter_0/FILLER_0_6_37/a_3708_375# vss 0.171644f $ **FLOATING
C162 phase_inverter_0/FILLER_0_6_37/a_3260_375# vss 0.171644f $ **FLOATING
C163 phase_inverter_0/FILLER_0_6_37/a_2812_375# vss 0.171644f $ **FLOATING
C164 phase_inverter_0/FILLER_0_6_37/a_2364_375# vss 0.171644f $ **FLOATING
C165 phase_inverter_0/FILLER_0_6_37/a_1916_375# vss 0.171644f $ **FLOATING
C166 phase_inverter_0/FILLER_0_6_37/a_1468_375# vss 0.171644f $ **FLOATING
C167 phase_inverter_0/FILLER_0_6_37/a_1020_375# vss 0.171644f $ **FLOATING
C168 phase_inverter_0/FILLER_0_6_37/a_572_375# vss 0.171644f $ **FLOATING
C169 phase_inverter_0/FILLER_0_6_37/a_124_375# vss 0.185708f $ **FLOATING
C170 input_signal[4] vss 1.095436f
C171 phase_inverter_0/FILLER_0_8_101/a_36_472# vss 0.417394f
C172 phase_inverter_0/FILLER_0_8_101/a_124_375# vss 0.246306f $ **FLOATING
C173 phase_inverter_0/FILLER_0_16_104/a_36_472# vss 0.417394f
C174 phase_inverter_0/FILLER_0_16_104/a_124_375# vss 0.246306f $ **FLOATING
C175 phase_inverter_0/FILLER_0_12_28/a_36_472# vss 0.417394f
C176 phase_inverter_0/FILLER_0_12_28/a_124_375# vss 0.246306f $ **FLOATING
C177 phase_inverter_0/FILLER_0_11_2/a_6756_472# vss 0.345058f $ **FLOATING
C178 phase_inverter_0/FILLER_0_11_2/a_6308_472# vss 0.33241f $ **FLOATING
C179 phase_inverter_0/FILLER_0_11_2/a_5860_472# vss 0.33241f $ **FLOATING
C180 phase_inverter_0/FILLER_0_11_2/a_5412_472# vss 0.33241f $ **FLOATING
C181 phase_inverter_0/FILLER_0_11_2/a_4964_472# vss 0.33241f $ **FLOATING
C182 phase_inverter_0/FILLER_0_11_2/a_4516_472# vss 0.33241f $ **FLOATING
C183 phase_inverter_0/FILLER_0_11_2/a_4068_472# vss 0.33241f $ **FLOATING
C184 phase_inverter_0/FILLER_0_11_2/a_3620_472# vss 0.33241f $ **FLOATING
C185 phase_inverter_0/FILLER_0_11_2/a_3172_472# vss 0.33241f $ **FLOATING
C186 phase_inverter_0/FILLER_0_11_2/a_2724_472# vss 0.33241f $ **FLOATING
C187 phase_inverter_0/FILLER_0_11_2/a_2276_472# vss 0.33241f $ **FLOATING
C188 phase_inverter_0/FILLER_0_11_2/a_1828_472# vss 0.33241f $ **FLOATING
C189 phase_inverter_0/FILLER_0_11_2/a_1380_472# vss 0.33241f $ **FLOATING
C190 phase_inverter_0/FILLER_0_11_2/a_932_472# vss 0.33241f $ **FLOATING
C191 phase_inverter_0/FILLER_0_11_2/a_484_472# vss 0.33241f $ **FLOATING
C192 phase_inverter_0/FILLER_0_11_2/a_36_472# vss 0.404746f
C193 phase_inverter_0/FILLER_0_11_2/a_6844_375# vss 0.233068f $ **FLOATING
C194 phase_inverter_0/FILLER_0_11_2/a_6396_375# vss 0.171644f $ **FLOATING
C195 phase_inverter_0/FILLER_0_11_2/a_5948_375# vss 0.171644f $ **FLOATING
C196 phase_inverter_0/FILLER_0_11_2/a_5500_375# vss 0.171644f $ **FLOATING
C197 phase_inverter_0/FILLER_0_11_2/a_5052_375# vss 0.171644f $ **FLOATING
C198 phase_inverter_0/FILLER_0_11_2/a_4604_375# vss 0.171644f $ **FLOATING
C199 phase_inverter_0/FILLER_0_11_2/a_4156_375# vss 0.171644f $ **FLOATING
C200 phase_inverter_0/FILLER_0_11_2/a_3708_375# vss 0.171644f $ **FLOATING
C201 phase_inverter_0/FILLER_0_11_2/a_3260_375# vss 0.171644f $ **FLOATING
C202 phase_inverter_0/FILLER_0_11_2/a_2812_375# vss 0.171644f $ **FLOATING
C203 phase_inverter_0/FILLER_0_11_2/a_2364_375# vss 0.171644f $ **FLOATING
C204 phase_inverter_0/FILLER_0_11_2/a_1916_375# vss 0.171644f $ **FLOATING
C205 phase_inverter_0/FILLER_0_11_2/a_1468_375# vss 0.171644f $ **FLOATING
C206 phase_inverter_0/FILLER_0_11_2/a_1020_375# vss 0.171644f $ **FLOATING
C207 phase_inverter_0/FILLER_0_11_2/a_572_375# vss 0.171644f $ **FLOATING
C208 phase_inverter_0/FILLER_0_11_2/a_124_375# vss 0.185708f $ **FLOATING
C209 phase_inverter_0/FILLER_0_16_70/a_36_472# vss 0.417394f
C210 phase_inverter_0/FILLER_0_16_70/a_124_375# vss 0.246306f $ **FLOATING
C211 phase_inverter_0/FILLER_0_15_8/a_3172_472# vss 0.345058f $ **FLOATING
C212 phase_inverter_0/FILLER_0_15_8/a_2724_472# vss 0.33241f $ **FLOATING
C213 phase_inverter_0/FILLER_0_15_8/a_2276_472# vss 0.33241f $ **FLOATING
C214 phase_inverter_0/FILLER_0_15_8/a_1828_472# vss 0.33241f $ **FLOATING
C215 phase_inverter_0/FILLER_0_15_8/a_1380_472# vss 0.33241f $ **FLOATING
C216 phase_inverter_0/FILLER_0_15_8/a_932_472# vss 0.33241f $ **FLOATING
C217 phase_inverter_0/FILLER_0_15_8/a_484_472# vss 0.33241f $ **FLOATING
C218 phase_inverter_0/FILLER_0_15_8/a_36_472# vss 0.404746f
C219 phase_inverter_0/FILLER_0_15_8/a_3260_375# vss 0.233093f $ **FLOATING
C220 phase_inverter_0/FILLER_0_15_8/a_2812_375# vss 0.17167f $ **FLOATING
C221 phase_inverter_0/FILLER_0_15_8/a_2364_375# vss 0.17167f $ **FLOATING
C222 phase_inverter_0/FILLER_0_15_8/a_1916_375# vss 0.17167f $ **FLOATING
C223 phase_inverter_0/FILLER_0_15_8/a_1468_375# vss 0.17167f $ **FLOATING
C224 phase_inverter_0/FILLER_0_15_8/a_1020_375# vss 0.17167f $ **FLOATING
C225 phase_inverter_0/FILLER_0_15_8/a_572_375# vss 0.17167f $ **FLOATING
C226 phase_inverter_0/FILLER_0_15_8/a_124_375# vss 0.185915f $ **FLOATING
C227 vdd vss 0.426348p
C228 phase_inverter_0/FILLER_0_0_36/a_3172_472# vss 0.345058f $ **FLOATING
C229 phase_inverter_0/FILLER_0_0_36/a_2724_472# vss 0.33241f $ **FLOATING
C230 phase_inverter_0/FILLER_0_0_36/a_2276_472# vss 0.33241f $ **FLOATING
C231 phase_inverter_0/FILLER_0_0_36/a_1828_472# vss 0.33241f $ **FLOATING
C232 phase_inverter_0/FILLER_0_0_36/a_1380_472# vss 0.33241f $ **FLOATING
C233 phase_inverter_0/FILLER_0_0_36/a_932_472# vss 0.33241f $ **FLOATING
C234 phase_inverter_0/FILLER_0_0_36/a_484_472# vss 0.33241f $ **FLOATING
C235 phase_inverter_0/FILLER_0_0_36/a_36_472# vss 0.409475f
C236 phase_inverter_0/FILLER_0_0_36/a_3260_375# vss 0.233093f $ **FLOATING
C237 phase_inverter_0/FILLER_0_0_36/a_2812_375# vss 0.17167f $ **FLOATING
C238 phase_inverter_0/FILLER_0_0_36/a_2364_375# vss 0.17167f $ **FLOATING
C239 phase_inverter_0/FILLER_0_0_36/a_1916_375# vss 0.17167f $ **FLOATING
C240 phase_inverter_0/FILLER_0_0_36/a_1468_375# vss 0.17167f $ **FLOATING
C241 phase_inverter_0/FILLER_0_0_36/a_1020_375# vss 0.17167f $ **FLOATING
C242 phase_inverter_0/FILLER_0_0_36/a_572_375# vss 0.17167f $ **FLOATING
C243 phase_inverter_0/FILLER_0_0_36/a_124_375# vss 0.185915f $ **FLOATING
C244 phase_inverter_0/_10_/Z vss 1.18279f
C245 phase_inverter_0/_10_/a_36_160# vss 0.386641f $ **FLOATING
C246 phase_inverter_0/FILLER_0_10_107/a_1380_472# vss 0.345058f $ **FLOATING
C247 phase_inverter_0/FILLER_0_10_107/a_932_472# vss 0.33241f $ **FLOATING
C248 phase_inverter_0/FILLER_0_10_107/a_484_472# vss 0.33241f $ **FLOATING
C249 phase_inverter_0/FILLER_0_10_107/a_36_472# vss 0.404746f
C250 phase_inverter_0/FILLER_0_10_107/a_1468_375# vss 0.233029f
C251 phase_inverter_0/FILLER_0_10_107/a_1020_375# vss 0.171606f $ **FLOATING
C252 phase_inverter_0/FILLER_0_10_107/a_572_375# vss 0.171606f $ **FLOATING
C253 phase_inverter_0/FILLER_0_10_107/a_124_375# vss 0.185399f $ **FLOATING
C254 phase_inverter_0/FILLER_0_12_37/a_6756_472# vss 0.345058f $ **FLOATING
C255 phase_inverter_0/FILLER_0_12_37/a_6308_472# vss 0.33241f $ **FLOATING
C256 phase_inverter_0/FILLER_0_12_37/a_5860_472# vss 0.33241f $ **FLOATING
C257 phase_inverter_0/FILLER_0_12_37/a_5412_472# vss 0.33241f $ **FLOATING
C258 phase_inverter_0/FILLER_0_12_37/a_4964_472# vss 0.33241f $ **FLOATING
C259 phase_inverter_0/FILLER_0_12_37/a_4516_472# vss 0.33241f $ **FLOATING
C260 phase_inverter_0/FILLER_0_12_37/a_4068_472# vss 0.33241f $ **FLOATING
C261 phase_inverter_0/FILLER_0_12_37/a_3620_472# vss 0.33241f $ **FLOATING
C262 phase_inverter_0/FILLER_0_12_37/a_3172_472# vss 0.33241f $ **FLOATING
C263 phase_inverter_0/FILLER_0_12_37/a_2724_472# vss 0.33241f $ **FLOATING
C264 phase_inverter_0/FILLER_0_12_37/a_2276_472# vss 0.33241f $ **FLOATING
C265 phase_inverter_0/FILLER_0_12_37/a_1828_472# vss 0.33241f $ **FLOATING
C266 phase_inverter_0/FILLER_0_12_37/a_1380_472# vss 0.33241f $ **FLOATING
C267 phase_inverter_0/FILLER_0_12_37/a_932_472# vss 0.33241f $ **FLOATING
C268 phase_inverter_0/FILLER_0_12_37/a_484_472# vss 0.33241f $ **FLOATING
C269 phase_inverter_0/FILLER_0_12_37/a_36_472# vss 0.404746f
C270 phase_inverter_0/FILLER_0_12_37/a_6844_375# vss 0.233068f $ **FLOATING
C271 phase_inverter_0/FILLER_0_12_37/a_6396_375# vss 0.171644f $ **FLOATING
C272 phase_inverter_0/FILLER_0_12_37/a_5948_375# vss 0.171644f $ **FLOATING
C273 phase_inverter_0/FILLER_0_12_37/a_5500_375# vss 0.171644f $ **FLOATING
C274 phase_inverter_0/FILLER_0_12_37/a_5052_375# vss 0.171644f $ **FLOATING
C275 phase_inverter_0/FILLER_0_12_37/a_4604_375# vss 0.171644f $ **FLOATING
C276 phase_inverter_0/FILLER_0_12_37/a_4156_375# vss 0.171644f $ **FLOATING
C277 phase_inverter_0/FILLER_0_12_37/a_3708_375# vss 0.171644f $ **FLOATING
C278 phase_inverter_0/FILLER_0_12_37/a_3260_375# vss 0.171644f $ **FLOATING
C279 phase_inverter_0/FILLER_0_12_37/a_2812_375# vss 0.171644f $ **FLOATING
C280 phase_inverter_0/FILLER_0_12_37/a_2364_375# vss 0.171644f $ **FLOATING
C281 phase_inverter_0/FILLER_0_12_37/a_1916_375# vss 0.171644f $ **FLOATING
C282 phase_inverter_0/FILLER_0_12_37/a_1468_375# vss 0.171644f $ **FLOATING
C283 phase_inverter_0/FILLER_0_12_37/a_1020_375# vss 0.171644f $ **FLOATING
C284 phase_inverter_0/FILLER_0_12_37/a_572_375# vss 0.171644f $ **FLOATING
C285 phase_inverter_0/FILLER_0_12_37/a_124_375# vss 0.185708f $ **FLOATING
C286 phase_inverter_0/FILLER_0_13_104/a_484_472# vss 0.345058f $ **FLOATING
C287 phase_inverter_0/FILLER_0_13_104/a_36_472# vss 0.404746f
C288 phase_inverter_0/FILLER_0_13_104/a_572_375# vss 0.232991f
C289 phase_inverter_0/FILLER_0_13_104/a_124_375# vss 0.185089f $ **FLOATING
C290 input_signal[6] vss 1.014523f
C291 phase_inverter_0/_11_/Z vss 1.137333f
C292 phase_inverter_0/_11_/a_36_113# vss 0.418095f
C293 phase_inverter_0/FILLER_0_9_66/a_36_472# vss 0.417394f
C294 phase_inverter_0/FILLER_0_9_66/a_124_375# vss 0.246306f $ **FLOATING
C295 phase_inverter_0/FILLER_0_3_12/a_3172_472# vss 0.345058f $ **FLOATING
C296 phase_inverter_0/FILLER_0_3_12/a_2724_472# vss 0.33241f $ **FLOATING
C297 phase_inverter_0/FILLER_0_3_12/a_2276_472# vss 0.33241f $ **FLOATING
C298 phase_inverter_0/FILLER_0_3_12/a_1828_472# vss 0.33241f $ **FLOATING
C299 phase_inverter_0/FILLER_0_3_12/a_1380_472# vss 0.33241f $ **FLOATING
C300 phase_inverter_0/FILLER_0_3_12/a_932_472# vss 0.33241f $ **FLOATING
C301 phase_inverter_0/FILLER_0_3_12/a_484_472# vss 0.33241f $ **FLOATING
C302 phase_inverter_0/FILLER_0_3_12/a_36_472# vss 0.404746f
C303 phase_inverter_0/FILLER_0_3_12/a_3260_375# vss 0.233093f $ **FLOATING
C304 phase_inverter_0/FILLER_0_3_12/a_2812_375# vss 0.17167f $ **FLOATING
C305 phase_inverter_0/FILLER_0_3_12/a_2364_375# vss 0.17167f $ **FLOATING
C306 phase_inverter_0/FILLER_0_3_12/a_1916_375# vss 0.17167f $ **FLOATING
C307 phase_inverter_0/FILLER_0_3_12/a_1468_375# vss 0.17167f $ **FLOATING
C308 phase_inverter_0/FILLER_0_3_12/a_1020_375# vss 0.17167f $ **FLOATING
C309 phase_inverter_0/FILLER_0_3_12/a_572_375# vss 0.17167f $ **FLOATING
C310 phase_inverter_0/FILLER_0_3_12/a_124_375# vss 0.185915f $ **FLOATING
C311 phase_inverter_0/FILLER_0_2_2/a_3172_472# vss 0.345058f $ **FLOATING
C312 phase_inverter_0/FILLER_0_2_2/a_2724_472# vss 0.33241f $ **FLOATING
C313 phase_inverter_0/FILLER_0_2_2/a_2276_472# vss 0.33241f $ **FLOATING
C314 phase_inverter_0/FILLER_0_2_2/a_1828_472# vss 0.33241f $ **FLOATING
C315 phase_inverter_0/FILLER_0_2_2/a_1380_472# vss 0.33241f $ **FLOATING
C316 phase_inverter_0/FILLER_0_2_2/a_932_472# vss 0.33241f $ **FLOATING
C317 phase_inverter_0/FILLER_0_2_2/a_484_472# vss 0.33241f $ **FLOATING
C318 phase_inverter_0/FILLER_0_2_2/a_36_472# vss 0.404746f
C319 phase_inverter_0/FILLER_0_2_2/a_3260_375# vss 0.233093f $ **FLOATING
C320 phase_inverter_0/FILLER_0_2_2/a_2812_375# vss 0.17167f $ **FLOATING
C321 phase_inverter_0/FILLER_0_2_2/a_2364_375# vss 0.17167f $ **FLOATING
C322 phase_inverter_0/FILLER_0_2_2/a_1916_375# vss 0.17167f $ **FLOATING
C323 phase_inverter_0/FILLER_0_2_2/a_1468_375# vss 0.17167f $ **FLOATING
C324 phase_inverter_0/FILLER_0_2_2/a_1020_375# vss 0.17167f $ **FLOATING
C325 phase_inverter_0/FILLER_0_2_2/a_572_375# vss 0.17167f $ **FLOATING
C326 phase_inverter_0/FILLER_0_2_2/a_124_375# vss 0.185915f $ **FLOATING
C327 phase_inverter_0/FILLER_0_13_2/a_6756_472# vss 0.345058f $ **FLOATING
C328 phase_inverter_0/FILLER_0_13_2/a_6308_472# vss 0.33241f $ **FLOATING
C329 phase_inverter_0/FILLER_0_13_2/a_5860_472# vss 0.33241f $ **FLOATING
C330 phase_inverter_0/FILLER_0_13_2/a_5412_472# vss 0.33241f $ **FLOATING
C331 phase_inverter_0/FILLER_0_13_2/a_4964_472# vss 0.33241f $ **FLOATING
C332 phase_inverter_0/FILLER_0_13_2/a_4516_472# vss 0.33241f $ **FLOATING
C333 phase_inverter_0/FILLER_0_13_2/a_4068_472# vss 0.33241f $ **FLOATING
C334 phase_inverter_0/FILLER_0_13_2/a_3620_472# vss 0.33241f $ **FLOATING
C335 phase_inverter_0/FILLER_0_13_2/a_3172_472# vss 0.33241f $ **FLOATING
C336 phase_inverter_0/FILLER_0_13_2/a_2724_472# vss 0.33241f $ **FLOATING
C337 phase_inverter_0/FILLER_0_13_2/a_2276_472# vss 0.33241f $ **FLOATING
C338 phase_inverter_0/FILLER_0_13_2/a_1828_472# vss 0.33241f $ **FLOATING
C339 phase_inverter_0/FILLER_0_13_2/a_1380_472# vss 0.33241f $ **FLOATING
C340 phase_inverter_0/FILLER_0_13_2/a_932_472# vss 0.33241f $ **FLOATING
C341 phase_inverter_0/FILLER_0_13_2/a_484_472# vss 0.33241f $ **FLOATING
C342 phase_inverter_0/FILLER_0_13_2/a_36_472# vss 0.404746f
C343 phase_inverter_0/FILLER_0_13_2/a_6844_375# vss 0.233068f $ **FLOATING
C344 phase_inverter_0/FILLER_0_13_2/a_6396_375# vss 0.171644f $ **FLOATING
C345 phase_inverter_0/FILLER_0_13_2/a_5948_375# vss 0.171644f $ **FLOATING
C346 phase_inverter_0/FILLER_0_13_2/a_5500_375# vss 0.171644f $ **FLOATING
C347 phase_inverter_0/FILLER_0_13_2/a_5052_375# vss 0.171644f $ **FLOATING
C348 phase_inverter_0/FILLER_0_13_2/a_4604_375# vss 0.171644f $ **FLOATING
C349 phase_inverter_0/FILLER_0_13_2/a_4156_375# vss 0.171644f $ **FLOATING
C350 phase_inverter_0/FILLER_0_13_2/a_3708_375# vss 0.171644f $ **FLOATING
C351 phase_inverter_0/FILLER_0_13_2/a_3260_375# vss 0.171644f $ **FLOATING
C352 phase_inverter_0/FILLER_0_13_2/a_2812_375# vss 0.171644f $ **FLOATING
C353 phase_inverter_0/FILLER_0_13_2/a_2364_375# vss 0.171644f $ **FLOATING
C354 phase_inverter_0/FILLER_0_13_2/a_1916_375# vss 0.171644f $ **FLOATING
C355 phase_inverter_0/FILLER_0_13_2/a_1468_375# vss 0.171644f $ **FLOATING
C356 phase_inverter_0/FILLER_0_13_2/a_1020_375# vss 0.171644f $ **FLOATING
C357 phase_inverter_0/FILLER_0_13_2/a_572_375# vss 0.171644f $ **FLOATING
C358 phase_inverter_0/FILLER_0_13_2/a_124_375# vss 0.185708f $ **FLOATING
C359 phase_inverter_0/FILLER_0_0_12/a_1380_472# vss 0.345058f $ **FLOATING
C360 phase_inverter_0/FILLER_0_0_12/a_932_472# vss 0.33241f $ **FLOATING
C361 phase_inverter_0/FILLER_0_0_12/a_484_472# vss 0.33241f $ **FLOATING
C362 phase_inverter_0/FILLER_0_0_12/a_36_472# vss 0.404746f
C363 phase_inverter_0/FILLER_0_0_12/a_1468_375# vss 0.233029f
C364 phase_inverter_0/FILLER_0_0_12/a_1020_375# vss 0.171606f $ **FLOATING
C365 phase_inverter_0/FILLER_0_0_12/a_572_375# vss 0.171606f $ **FLOATING
C366 phase_inverter_0/FILLER_0_0_12/a_124_375# vss 0.185399f $ **FLOATING
C367 phase_inverter_0/FILLER_0_3_44/a_1380_472# vss 0.345058f $ **FLOATING
C368 phase_inverter_0/FILLER_0_3_44/a_932_472# vss 0.33241f $ **FLOATING
C369 phase_inverter_0/FILLER_0_3_44/a_484_472# vss 0.33241f $ **FLOATING
C370 phase_inverter_0/FILLER_0_3_44/a_36_472# vss 0.404746f
C371 phase_inverter_0/FILLER_0_3_44/a_1468_375# vss 0.233029f
C372 phase_inverter_0/FILLER_0_3_44/a_1020_375# vss 0.171606f $ **FLOATING
C373 phase_inverter_0/FILLER_0_3_44/a_572_375# vss 0.171606f $ **FLOATING
C374 phase_inverter_0/FILLER_0_3_44/a_124_375# vss 0.185399f $ **FLOATING
C375 phase_inverter_0/_12_/Z vss 1.135084f
C376 phase_inverter_0/_12_/a_36_113# vss 0.418095f
C377 phase_inverter_0/FILLER_0_15_56/a_484_472# vss 0.345058f $ **FLOATING
C378 phase_inverter_0/FILLER_0_15_56/a_36_472# vss 0.404746f
C379 phase_inverter_0/FILLER_0_15_56/a_572_375# vss 0.232991f
C380 phase_inverter_0/FILLER_0_15_56/a_124_375# vss 0.185089f $ **FLOATING
C381 phase_inverter_0/_13_/Z vss 1.131177f
C382 phase_inverter_0/_13_/a_36_113# vss 0.418095f
C383 phase_inverter_0/FILLER_0_2_101/a_36_472# vss 0.417394f
C384 phase_inverter_0/FILLER_0_2_101/a_124_375# vss 0.246306f $ **FLOATING
C385 phase_inverter_0/FILLER_0_12_12/a_1380_472# vss 0.345058f $ **FLOATING
C386 phase_inverter_0/FILLER_0_12_12/a_932_472# vss 0.33241f $ **FLOATING
C387 phase_inverter_0/FILLER_0_12_12/a_484_472# vss 0.33241f $ **FLOATING
C388 phase_inverter_0/FILLER_0_12_12/a_36_472# vss 0.404746f
C389 phase_inverter_0/FILLER_0_12_12/a_1468_375# vss 0.233029f
C390 phase_inverter_0/FILLER_0_12_12/a_1020_375# vss 0.171606f $ **FLOATING
C391 phase_inverter_0/FILLER_0_12_12/a_572_375# vss 0.171606f $ **FLOATING
C392 phase_inverter_0/FILLER_0_12_12/a_124_375# vss 0.185399f $ **FLOATING
C393 input_signal[8] vss 1.074195f
C394 phase_inverter_0/_14_/Z vss 1.171827f
C395 phase_inverter_0/_14_/a_36_113# vss 0.418095f
C396 phase_inverter_0/FILLER_0_4_2/a_3172_472# vss 0.345058f $ **FLOATING
C397 phase_inverter_0/FILLER_0_4_2/a_2724_472# vss 0.33241f $ **FLOATING
C398 phase_inverter_0/FILLER_0_4_2/a_2276_472# vss 0.33241f $ **FLOATING
C399 phase_inverter_0/FILLER_0_4_2/a_1828_472# vss 0.33241f $ **FLOATING
C400 phase_inverter_0/FILLER_0_4_2/a_1380_472# vss 0.33241f $ **FLOATING
C401 phase_inverter_0/FILLER_0_4_2/a_932_472# vss 0.33241f $ **FLOATING
C402 phase_inverter_0/FILLER_0_4_2/a_484_472# vss 0.33241f $ **FLOATING
C403 phase_inverter_0/FILLER_0_4_2/a_36_472# vss 0.404746f
C404 phase_inverter_0/FILLER_0_4_2/a_3260_375# vss 0.233093f $ **FLOATING
C405 phase_inverter_0/FILLER_0_4_2/a_2812_375# vss 0.17167f $ **FLOATING
C406 phase_inverter_0/FILLER_0_4_2/a_2364_375# vss 0.17167f $ **FLOATING
C407 phase_inverter_0/FILLER_0_4_2/a_1916_375# vss 0.17167f $ **FLOATING
C408 phase_inverter_0/FILLER_0_4_2/a_1468_375# vss 0.17167f $ **FLOATING
C409 phase_inverter_0/FILLER_0_4_2/a_1020_375# vss 0.17167f $ **FLOATING
C410 phase_inverter_0/FILLER_0_4_2/a_572_375# vss 0.17167f $ **FLOATING
C411 phase_inverter_0/FILLER_0_4_2/a_124_375# vss 0.185915f $ **FLOATING
C412 phase_inverter_0/FILLER_0_15_2/a_36_472# vss 0.417394f
C413 phase_inverter_0/FILLER_0_15_2/a_124_375# vss 0.246306f $ **FLOATING
C414 phase_inverter_0/_15_/Z vss 1.167741f
C415 phase_inverter_0/_15_/a_36_113# vss 0.418095f
C416 phase_inverter_0/FILLER_0_6_107/a_36_472# vss 0.417394f
C417 phase_inverter_0/FILLER_0_6_107/a_124_375# vss 0.246306f $ **FLOATING
C418 phase_inverter_0/FILLER_0_9_104/a_484_472# vss 0.345058f $ **FLOATING
C419 phase_inverter_0/FILLER_0_9_104/a_36_472# vss 0.404746f
C420 phase_inverter_0/FILLER_0_9_104/a_572_375# vss 0.232991f
C421 phase_inverter_0/FILLER_0_9_104/a_124_375# vss 0.185089f $ **FLOATING
C422 phase_inverter_0/FILLER_0_9_72/a_3172_472# vss 0.345058f $ **FLOATING
C423 phase_inverter_0/FILLER_0_9_72/a_2724_472# vss 0.33241f $ **FLOATING
C424 phase_inverter_0/FILLER_0_9_72/a_2276_472# vss 0.33241f $ **FLOATING
C425 phase_inverter_0/FILLER_0_9_72/a_1828_472# vss 0.33241f $ **FLOATING
C426 phase_inverter_0/FILLER_0_9_72/a_1380_472# vss 0.33241f $ **FLOATING
C427 phase_inverter_0/FILLER_0_9_72/a_932_472# vss 0.33241f $ **FLOATING
C428 phase_inverter_0/FILLER_0_9_72/a_484_472# vss 0.33241f $ **FLOATING
C429 phase_inverter_0/FILLER_0_9_72/a_36_472# vss 0.404746f
C430 phase_inverter_0/FILLER_0_9_72/a_3260_375# vss 0.233093f $ **FLOATING
C431 phase_inverter_0/FILLER_0_9_72/a_2812_375# vss 0.17167f $ **FLOATING
C432 phase_inverter_0/FILLER_0_9_72/a_2364_375# vss 0.17167f $ **FLOATING
C433 phase_inverter_0/FILLER_0_9_72/a_1916_375# vss 0.17167f $ **FLOATING
C434 phase_inverter_0/FILLER_0_9_72/a_1468_375# vss 0.17167f $ **FLOATING
C435 phase_inverter_0/FILLER_0_9_72/a_1020_375# vss 0.17167f $ **FLOATING
C436 phase_inverter_0/FILLER_0_9_72/a_572_375# vss 0.17167f $ **FLOATING
C437 phase_inverter_0/FILLER_0_9_72/a_124_375# vss 0.185915f $ **FLOATING
C438 phase_inverter_0/FILLER_0_15_64/a_36_472# vss 0.417394f
C439 phase_inverter_0/FILLER_0_15_64/a_124_375# vss 0.246306f $ **FLOATING
C440 phase_inverter_0/_16_/Z vss 1.160526f
C441 phase_inverter_0/_16_/a_36_113# vss 0.418095f
C442 phase_inverter_0/FILLER_0_10_101/a_36_472# vss 0.417394f
C443 phase_inverter_0/FILLER_0_10_101/a_124_375# vss 0.246306f $ **FLOATING
C444 phase_inverter_0/FILLER_0_3_72/a_3172_472# vss 0.345058f $ **FLOATING
C445 phase_inverter_0/FILLER_0_3_72/a_2724_472# vss 0.33241f $ **FLOATING
C446 phase_inverter_0/FILLER_0_3_72/a_2276_472# vss 0.33241f $ **FLOATING
C447 phase_inverter_0/FILLER_0_3_72/a_1828_472# vss 0.33241f $ **FLOATING
C448 phase_inverter_0/FILLER_0_3_72/a_1380_472# vss 0.33241f $ **FLOATING
C449 phase_inverter_0/FILLER_0_3_72/a_932_472# vss 0.33241f $ **FLOATING
C450 phase_inverter_0/FILLER_0_3_72/a_484_472# vss 0.33241f $ **FLOATING
C451 phase_inverter_0/FILLER_0_3_72/a_36_472# vss 0.404746f
C452 phase_inverter_0/FILLER_0_3_72/a_3260_375# vss 0.233093f $ **FLOATING