* NGSPICE file created from dac_in.ext - technology: gf180mcuD

.subckt gf180mcu_fd_sc_mcu7t5v0__fillcap_16$1 VDD VSS VPW VNW a_1380_472# a_36_472#
+ a_932_472# a_572_375# a_124_375# a_1468_375# a_1020_375# a_484_472# VSUBS
X0 VDD a_572_375# a_484_472# VNW pfet_06v0 ad=0.5368p pd=3.32u as=0.5368p ps=3.32u w=1.22u l=1u
X1 a_572_375# a_484_472# VSS VSUBS nfet_06v0 ad=0.3608p pd=2.52u as=0.3608p ps=2.52u w=0.82u l=1u
X2 a_124_375# a_36_472# VSS VSUBS nfet_06v0 ad=0.3608p pd=2.52u as=0.3608p ps=2.52u w=0.82u l=1u
X3 a_1468_375# a_1380_472# VSS VSUBS nfet_06v0 ad=0.3608p pd=2.52u as=0.3608p ps=2.52u w=0.82u l=1u
X4 VDD a_1020_375# a_932_472# VNW pfet_06v0 ad=0.5368p pd=3.32u as=0.5368p ps=3.32u w=1.22u l=1u
X5 VDD a_1468_375# a_1380_472# VNW pfet_06v0 ad=0.5368p pd=3.32u as=0.5368p ps=3.32u w=1.22u l=1u
X6 VDD a_124_375# a_36_472# VNW pfet_06v0 ad=0.5368p pd=3.32u as=0.5368p ps=3.32u w=1.22u l=1u
X7 a_1020_375# a_932_472# VSS VSUBS nfet_06v0 ad=0.3608p pd=2.52u as=0.3608p ps=2.52u w=0.82u l=1u
C0 a_1020_375# VNW 0.181468f
C1 a_932_472# a_484_472# 0.013276f
C2 a_36_472# a_484_472# 0.013276f
C3 a_124_375# VNW 0.180172f
C4 VSS VNW 0.017643f
C5 VSS a_1020_375# 0.134699f
C6 a_1468_375# VNW 0.18122f
C7 a_1020_375# a_1468_375# 0.012552f
C8 a_572_375# VNW 0.181468f
C9 VSS a_124_375# 0.134699f
C10 a_1380_472# VNW 0.024396f
C11 VNW VDD 0.217349f
C12 a_572_375# a_1020_375# 0.012552f
C13 a_1380_472# a_1020_375# 0.086905f
C14 a_1020_375# VDD 0.129962f
C15 VSS a_1468_375# 0.082091f
C16 a_484_472# VNW 0.024018f
C17 a_124_375# a_572_375# 0.012552f
C18 VSS a_572_375# 0.134699f
C19 a_124_375# VDD 0.12673f
C20 VSS a_1380_472# 0.144845f
C21 VSS VDD 0.026369f
C22 a_932_472# VNW 0.024018f
C23 a_932_472# a_1020_375# 0.285629f
C24 a_1380_472# a_1468_375# 0.285629f
C25 a_1468_375# VDD 0.129266f
C26 a_124_375# a_484_472# 0.086905f
C27 a_36_472# VNW 0.025611f
C28 VSS a_484_472# 0.148077f
C29 a_572_375# VDD 0.129962f
C30 a_1380_472# VDD 0.179463f
C31 VSS a_932_472# 0.148077f
C32 a_572_375# a_484_472# 0.285629f
C33 a_36_472# a_124_375# 0.285629f
C34 VSS a_36_472# 0.147381f
C35 a_484_472# VDD 0.179463f
C36 a_932_472# a_572_375# 0.086905f
C37 a_932_472# a_1380_472# 0.013276f
C38 a_932_472# VDD 0.179463f
C39 a_36_472# VDD 0.093681f
C40 VSS VSUBS 0.642184f
C41 VDD VSUBS 0.493288f
C42 VNW VSUBS 3.05206f
C43 a_1380_472# VSUBS 0.345058f
C44 a_932_472# VSUBS 0.33241f
C45 a_484_472# VSUBS 0.33241f
C46 a_36_472# VSUBS 0.404746f
C47 a_1468_375# VSUBS 0.233029f
C48 a_1020_375# VSUBS 0.171606f
C49 a_572_375# VSUBS 0.171606f
C50 a_124_375# VSUBS 0.185399f
.ends

.subckt gf180mcu_fd_sc_mcu7t5v0__buf_8$1 Z I VDD VSS VPW VNW a_224_472# VSUBS
X0 a_224_472# I VDD VNW pfet_06v0 ad=0.3782p pd=1.84u as=0.3782p ps=1.84u w=1.22u l=0.5u
X1 Z a_224_472# VDD VNW pfet_06v0 ad=0.3782p pd=1.84u as=0.3782p ps=1.84u w=1.22u l=0.5u
X2 a_224_472# I VSS VSUBS nfet_06v0 ad=0.2132p pd=1.34u as=0.2132p ps=1.34u w=0.82u l=0.6u
X3 VSS a_224_472# Z VSUBS nfet_06v0 ad=0.3608p pd=2.52u as=0.2132p ps=1.34u w=0.82u l=0.6u
X4 VDD a_224_472# Z VNW pfet_06v0 ad=0.3782p pd=1.84u as=0.3782p ps=1.84u w=1.22u l=0.5u
X5 Z a_224_472# VDD VNW pfet_06v0 ad=0.3782p pd=1.84u as=0.3782p ps=1.84u w=1.22u l=0.5u
X6 a_224_472# I VSS VSUBS nfet_06v0 ad=0.2132p pd=1.34u as=0.3608p ps=2.52u w=0.82u l=0.6u
X7 Z a_224_472# VSS VSUBS nfet_06v0 ad=0.2132p pd=1.34u as=0.2132p ps=1.34u w=0.82u l=0.6u
X8 VDD a_224_472# Z VNW pfet_06v0 ad=0.3782p pd=1.84u as=0.3782p ps=1.84u w=1.22u l=0.5u
X9 Z a_224_472# VSS VSUBS nfet_06v0 ad=0.2132p pd=1.34u as=0.2132p ps=1.34u w=0.82u l=0.6u
X10 Z a_224_472# VSS VSUBS nfet_06v0 ad=0.2132p pd=1.34u as=0.2132p ps=1.34u w=0.82u l=0.6u
X11 VDD I a_224_472# VNW pfet_06v0 ad=0.3782p pd=1.84u as=0.3782p ps=1.84u w=1.22u l=0.5u
X12 VDD a_224_472# Z VNW pfet_06v0 ad=0.3782p pd=1.84u as=0.3782p ps=1.84u w=1.22u l=0.5u
X13 Z a_224_472# VDD VNW pfet_06v0 ad=0.3782p pd=1.84u as=0.3782p ps=1.84u w=1.22u l=0.5u
X14 VSS a_224_472# Z VSUBS nfet_06v0 ad=0.2132p pd=1.34u as=0.2132p ps=1.34u w=0.82u l=0.6u
X15 VDD I a_224_472# VNW pfet_06v0 ad=0.3782p pd=1.84u as=0.3782p ps=1.84u w=1.22u l=0.5u
X16 VSS a_224_472# Z VSUBS nfet_06v0 ad=0.2132p pd=1.34u as=0.2132p ps=1.34u w=0.82u l=0.6u
X17 VDD a_224_472# Z VNW pfet_06v0 ad=0.5368p pd=3.32u as=0.3782p ps=1.84u w=1.22u l=0.5u
X18 VSS a_224_472# Z VSUBS nfet_06v0 ad=0.2132p pd=1.34u as=0.2132p ps=1.34u w=0.82u l=0.6u
X19 Z a_224_472# VDD VNW pfet_06v0 ad=0.3782p pd=1.84u as=0.3782p ps=1.84u w=1.22u l=0.5u
X20 VSS I a_224_472# VSUBS nfet_06v0 ad=0.2132p pd=1.34u as=0.2132p ps=1.34u w=0.82u l=0.6u
X21 a_224_472# I VDD VNW pfet_06v0 ad=0.3782p pd=1.84u as=0.5368p ps=3.32u w=1.22u l=0.5u
X22 VSS I a_224_472# VSUBS nfet_06v0 ad=0.2132p pd=1.34u as=0.2132p ps=1.34u w=0.82u l=0.6u
X23 Z a_224_472# VSS VSUBS nfet_06v0 ad=0.2132p pd=1.34u as=0.2132p ps=1.34u w=0.82u l=0.6u
C0 Z I 0.001907f
C1 VDD I 0.1311f
C2 I a_224_472# 0.796069f
C3 Z VSS 0.70427f
C4 Z VNW 0.038011f
C5 VDD VSS 0.031131f
C6 VDD VNW 0.305516f
C7 VSS a_224_472# 0.659695f
C8 a_224_472# VNW 1.14633f
C9 VSS I 0.158668f
C10 I VNW 0.55539f
C11 VSS VNW 0.01282f
C12 VDD Z 0.819024f
C13 Z a_224_472# 2.29481f
C14 VDD a_224_472# 0.74621f
C15 VSS VSUBS 0.910368f
C16 Z VSUBS 0.18914f
C17 VDD VSUBS 0.724491f
C18 I VSUBS 1.16773f
C19 VNW VSUBS 4.79254f
C20 a_224_472# VSUBS 2.38465f
.ends

.subckt gf180mcu_fd_sc_mcu7t5v0__fillcap_64 VDD VSS VPW VNW a_1916_375# a_4516_472#
+ a_1380_472# a_3260_375# a_5860_472# a_36_472# a_932_472# a_2812_375# a_5412_472#
+ a_2276_472# a_4156_375# a_6756_472# a_1828_472# a_3708_375# a_3172_472# a_572_375#
+ a_6308_472# a_5052_375# a_2724_472# a_6396_375# a_4604_375# a_124_375# a_1468_375#
+ a_4068_472# a_5948_375# a_3620_472# a_1020_375# a_5500_375# a_4964_472# a_484_472#
+ a_2364_375# a_6844_375# VSUBS
X0 a_4604_375# a_4516_472# VSS VSUBS nfet_06v0 ad=0.3608p pd=2.52u as=0.3608p ps=2.52u w=0.82u l=1u
X1 VDD a_572_375# a_484_472# VNW pfet_06v0 ad=0.5368p pd=3.32u as=0.5368p ps=3.32u w=1.22u l=1u
X2 VDD a_2364_375# a_2276_472# VNW pfet_06v0 ad=0.5368p pd=3.32u as=0.5368p ps=3.32u w=1.22u l=1u
X3 a_4156_375# a_4068_472# VSS VSUBS nfet_06v0 ad=0.3608p pd=2.52u as=0.3608p ps=2.52u w=0.82u l=1u
X4 a_5500_375# a_5412_472# VSS VSUBS nfet_06v0 ad=0.3608p pd=2.52u as=0.3608p ps=2.52u w=0.82u l=1u
X5 a_572_375# a_484_472# VSS VSUBS nfet_06v0 ad=0.3608p pd=2.52u as=0.3608p ps=2.52u w=0.82u l=1u
X6 VDD a_5052_375# a_4964_472# VNW pfet_06v0 ad=0.5368p pd=3.32u as=0.5368p ps=3.32u w=1.22u l=1u
X7 VDD a_6844_375# a_6756_472# VNW pfet_06v0 ad=0.5368p pd=3.32u as=0.5368p ps=3.32u w=1.22u l=1u
X8 VDD a_1916_375# a_1828_472# VNW pfet_06v0 ad=0.5368p pd=3.32u as=0.5368p ps=3.32u w=1.22u l=1u
X9 a_124_375# a_36_472# VSS VSUBS nfet_06v0 ad=0.3608p pd=2.52u as=0.3608p ps=2.52u w=0.82u l=1u
X10 a_5052_375# a_4964_472# VSS VSUBS nfet_06v0 ad=0.3608p pd=2.52u as=0.3608p ps=2.52u w=0.82u l=1u
X11 a_1916_375# a_1828_472# VSS VSUBS nfet_06v0 ad=0.3608p pd=2.52u as=0.3608p ps=2.52u w=0.82u l=1u
X12 VDD a_4604_375# a_4516_472# VNW pfet_06v0 ad=0.5368p pd=3.32u as=0.5368p ps=3.32u w=1.22u l=1u
X13 a_1468_375# a_1380_472# VSS VSUBS nfet_06v0 ad=0.3608p pd=2.52u as=0.3608p ps=2.52u w=0.82u l=1u
X14 a_2812_375# a_2724_472# VSS VSUBS nfet_06v0 ad=0.3608p pd=2.52u as=0.3608p ps=2.52u w=0.82u l=1u
X15 VDD a_3260_375# a_3172_472# VNW pfet_06v0 ad=0.5368p pd=3.32u as=0.5368p ps=3.32u w=1.22u l=1u
X16 a_2364_375# a_2276_472# VSS VSUBS nfet_06v0 ad=0.3608p pd=2.52u as=0.3608p ps=2.52u w=0.82u l=1u
X17 a_5948_375# a_5860_472# VSS VSUBS nfet_06v0 ad=0.3608p pd=2.52u as=0.3608p ps=2.52u w=0.82u l=1u
X18 VDD a_2812_375# a_2724_472# VNW pfet_06v0 ad=0.5368p pd=3.32u as=0.5368p ps=3.32u w=1.22u l=1u
X19 a_3260_375# a_3172_472# VSS VSUBS nfet_06v0 ad=0.3608p pd=2.52u as=0.3608p ps=2.52u w=0.82u l=1u
X20 VDD a_1020_375# a_932_472# VNW pfet_06v0 ad=0.5368p pd=3.32u as=0.5368p ps=3.32u w=1.22u l=1u
X21 VDD a_5500_375# a_5412_472# VNW pfet_06v0 ad=0.5368p pd=3.32u as=0.5368p ps=3.32u w=1.22u l=1u
X22 a_6844_375# a_6756_472# VSS VSUBS nfet_06v0 ad=0.3608p pd=2.52u as=0.3608p ps=2.52u w=0.82u l=1u
X23 a_6396_375# a_6308_472# VSS VSUBS nfet_06v0 ad=0.3608p pd=2.52u as=0.3608p ps=2.52u w=0.82u l=1u
X24 VDD a_6396_375# a_6308_472# VNW pfet_06v0 ad=0.5368p pd=3.32u as=0.5368p ps=3.32u w=1.22u l=1u
X25 VDD a_1468_375# a_1380_472# VNW pfet_06v0 ad=0.5368p pd=3.32u as=0.5368p ps=3.32u w=1.22u l=1u
X26 VDD a_4156_375# a_4068_472# VNW pfet_06v0 ad=0.5368p pd=3.32u as=0.5368p ps=3.32u w=1.22u l=1u
X27 VDD a_5948_375# a_5860_472# VNW pfet_06v0 ad=0.5368p pd=3.32u as=0.5368p ps=3.32u w=1.22u l=1u
X28 VDD a_124_375# a_36_472# VNW pfet_06v0 ad=0.5368p pd=3.32u as=0.5368p ps=3.32u w=1.22u l=1u
X29 a_3708_375# a_3620_472# VSS VSUBS nfet_06v0 ad=0.3608p pd=2.52u as=0.3608p ps=2.52u w=0.82u l=1u
X30 VDD a_3708_375# a_3620_472# VNW pfet_06v0 ad=0.5368p pd=3.32u as=0.5368p ps=3.32u w=1.22u l=1u
X31 a_1020_375# a_932_472# VSS VSUBS nfet_06v0 ad=0.3608p pd=2.52u as=0.3608p ps=2.52u w=0.82u l=1u
C0 a_2276_472# VSS 0.144729f
C1 VDD a_572_375# 0.129962f
C2 a_3620_472# VSS 0.144729f
C3 VSS a_6308_472# 0.144729f
C4 a_4964_472# VDD 0.179463f
C5 a_5860_472# VSS 0.144729f
C6 VNW a_124_375# 0.180172f
C7 a_4068_472# a_3620_472# 0.013276f
C8 a_1916_375# VNW 0.181468f
C9 a_1828_472# VSS 0.144729f
C10 a_3620_472# a_3172_472# 0.013276f
C11 VSS a_484_472# 0.144729f
C12 a_3620_472# a_3260_375# 0.087066f
C13 a_4516_472# a_4964_472# 0.013276f
C14 a_2276_472# VNW 0.024018f
C15 a_3620_472# VNW 0.024018f
C16 a_572_375# VSS 0.132921f
C17 a_1468_375# a_1020_375# 0.012882f
C18 a_6756_472# a_6844_375# 0.285629f
C19 VNW a_6308_472# 0.024018f
C20 VNW a_5860_472# 0.024018f
C21 a_4964_472# VSS 0.144729f
C22 VDD a_1020_375# 0.129962f
C23 a_4964_472# a_4604_375# 0.087066f
C24 a_2812_375# a_2724_472# 0.285629f
C25 a_1380_472# a_1468_375# 0.285629f
C26 a_1828_472# VNW 0.024018f
C27 a_1380_472# VDD 0.179463f
C28 a_5412_472# a_5052_375# 0.087066f
C29 a_2276_472# a_1916_375# 0.087066f
C30 VNW a_484_472# 0.024018f
C31 VDD a_3708_375# 0.129962f
C32 VNW a_572_375# 0.181468f
C33 a_2812_375# VDD 0.129962f
C34 a_4964_472# VNW 0.024018f
C35 a_932_472# VDD 0.179463f
C36 VSS a_1020_375# 0.132921f
C37 VDD a_5052_375# 0.129962f
C38 a_1828_472# a_1916_375# 0.285629f
C39 a_124_375# a_484_472# 0.087066f
C40 a_2812_375# a_2364_375# 0.012882f
C41 a_5500_375# a_5052_375# 0.012882f
C42 a_6756_472# VDD 0.179463f
C43 a_1380_472# VSS 0.144729f
C44 a_124_375# a_572_375# 0.012882f
C45 a_5860_472# a_6308_472# 0.013276f
C46 a_6756_472# a_6396_375# 0.087066f
C47 a_1828_472# a_2276_472# 0.013276f
C48 a_3708_375# VSS 0.132921f
C49 VDD a_6844_375# 0.129266f
C50 a_6396_375# a_6844_375# 0.012882f
C51 a_4068_472# a_3708_375# 0.087066f
C52 a_2812_375# VSS 0.132921f
C53 VNW a_1020_375# 0.181468f
C54 a_932_472# VSS 0.144729f
C55 VSS a_5052_375# 0.132921f
C56 a_4604_375# a_5052_375# 0.012882f
C57 a_3708_375# a_4156_375# 0.012882f
C58 a_2812_375# a_3172_472# 0.087066f
C59 a_1380_472# VNW 0.024018f
C60 a_3260_375# a_3708_375# 0.012882f
C61 a_6756_472# VSS 0.141496f
C62 VDD a_2724_472# 0.179463f
C63 VDD a_5412_472# 0.179463f
C64 VNW a_3708_375# 0.181468f
C65 a_2812_375# a_3260_375# 0.012882f
C66 VSS a_6844_375# 0.081619f
C67 a_5500_375# a_5412_472# 0.285629f
C68 a_2812_375# VNW 0.181468f
C69 a_2724_472# a_2364_375# 0.087066f
C70 a_5948_375# VDD 0.129962f
C71 a_572_375# a_484_472# 0.285629f
C72 a_932_472# VNW 0.024018f
C73 a_5948_375# a_6396_375# 0.012882f
C74 VNW a_5052_375# 0.181468f
C75 VDD a_1468_375# 0.129962f
C76 a_5500_375# a_5948_375# 0.012882f
C77 VDD a_36_472# 0.093681f
C78 VDD a_6396_375# 0.129962f
C79 a_6756_472# VNW 0.024396f
C80 VSS a_2724_472# 0.144729f
C81 a_5500_375# VDD 0.129962f
C82 a_5412_472# VSS 0.144729f
C83 VDD a_2364_375# 0.129962f
C84 VNW a_6844_375# 0.18122f
C85 a_3620_472# a_3708_375# 0.285629f
C86 a_4516_472# VDD 0.179463f
C87 a_5948_375# VSS 0.132921f
C88 a_3172_472# a_2724_472# 0.013276f
C89 a_1468_375# VSS 0.132921f
C90 a_1828_472# a_1380_472# 0.013276f
C91 VSS a_36_472# 0.144033f
C92 VDD VSS 0.105475f
C93 VDD a_4604_375# 0.129962f
C94 a_6396_375# VSS 0.132921f
C95 a_572_375# a_1020_375# 0.012882f
C96 VNW a_2724_472# 0.024018f
C97 VNW a_5412_472# 0.024018f
C98 a_5500_375# VSS 0.132921f
C99 a_4068_472# VDD 0.179463f
C100 VSS a_2364_375# 0.132921f
C101 VDD a_3172_472# 0.179463f
C102 a_6756_472# a_6308_472# 0.013276f
C103 a_5948_375# VNW 0.181468f
C104 a_4516_472# VSS 0.144729f
C105 a_4516_472# a_4604_375# 0.285629f
C106 VDD a_4156_375# 0.129962f
C107 VDD a_3260_375# 0.129962f
C108 VNW a_1468_375# 0.181468f
C109 a_932_472# a_484_472# 0.013276f
C110 VNW a_36_472# 0.025611f
C111 VNW VDD 0.842606f
C112 a_4068_472# a_4516_472# 0.013276f
C113 VSS a_4604_375# 0.132921f
C114 VNW a_6396_375# 0.181468f
C115 a_932_472# a_572_375# 0.087066f
C116 a_5500_375# VNW 0.181468f
C117 a_4068_472# VSS 0.144729f
C118 VNW a_2364_375# 0.181468f
C119 a_4964_472# a_5052_375# 0.285629f
C120 a_4516_472# a_4156_375# 0.087066f
C121 a_2276_472# a_2724_472# 0.013276f
C122 VSS a_3172_472# 0.144729f
C123 a_124_375# a_36_472# 0.285629f
C124 VDD a_124_375# 0.12673f
C125 a_1916_375# a_1468_375# 0.012882f
C126 a_4516_472# VNW 0.024018f
C127 a_1380_472# a_1020_375# 0.087066f
C128 VSS a_4156_375# 0.132921f
C129 a_4156_375# a_4604_375# 0.012882f
C130 a_1916_375# VDD 0.129962f
C131 a_5412_472# a_5860_472# 0.013276f
C132 a_3260_375# VSS 0.132921f
C133 VNW VSS 0.070573f
C134 VNW a_4604_375# 0.181468f
C135 a_4068_472# a_4156_375# 0.285629f
C136 a_5948_375# a_6308_472# 0.087066f
C137 a_1916_375# a_2364_375# 0.012882f
C138 a_5948_375# a_5860_472# 0.285629f
C139 a_2276_472# VDD 0.179463f
C140 a_4068_472# VNW 0.024018f
C141 a_932_472# a_1020_375# 0.285629f
C142 a_3260_375# a_3172_472# 0.285629f
C143 a_3620_472# VDD 0.179463f
C144 VDD a_6308_472# 0.179463f
C145 VNW a_3172_472# 0.024018f
C146 VDD a_5860_472# 0.179463f
C147 a_6396_375# a_6308_472# 0.285629f
C148 a_2276_472# a_2364_375# 0.285629f
C149 a_932_472# a_1380_472# 0.013276f
C150 a_124_375# VSS 0.132921f
C151 a_1828_472# a_1468_375# 0.087066f
C152 VNW a_4156_375# 0.181468f
C153 a_4964_472# a_5412_472# 0.013276f
C154 VNW a_3260_375# 0.181468f
C155 a_1828_472# VDD 0.179463f
C156 a_1916_375# VSS 0.132921f
C157 a_5500_375# a_5860_472# 0.087066f
C158 a_36_472# a_484_472# 0.013276f
C159 VDD a_484_472# 0.179463f
C160 VSS VSUBS 2.33708f
C161 VDD VSUBS 1.73533f
C162 VNW VSUBS 11.406401f
C163 a_6756_472# VSUBS 0.345058f
C164 a_6308_472# VSUBS 0.33241f
C165 a_5860_472# VSUBS 0.33241f
C166 a_5412_472# VSUBS 0.33241f
C167 a_4964_472# VSUBS 0.33241f
C168 a_4516_472# VSUBS 0.33241f
C169 a_4068_472# VSUBS 0.33241f
C170 a_3620_472# VSUBS 0.33241f
C171 a_3172_472# VSUBS 0.33241f
C172 a_2724_472# VSUBS 0.33241f
C173 a_2276_472# VSUBS 0.33241f
C174 a_1828_472# VSUBS 0.33241f
C175 a_1380_472# VSUBS 0.33241f
C176 a_932_472# VSUBS 0.33241f
C177 a_484_472# VSUBS 0.33241f
C178 a_36_472# VSUBS 0.404746f
C179 a_6844_375# VSUBS 0.233068f
C180 a_6396_375# VSUBS 0.171644f
C181 a_5948_375# VSUBS 0.171644f
C182 a_5500_375# VSUBS 0.171644f
C183 a_5052_375# VSUBS 0.171644f
C184 a_4604_375# VSUBS 0.171644f
C185 a_4156_375# VSUBS 0.171644f
C186 a_3708_375# VSUBS 0.171644f
C187 a_3260_375# VSUBS 0.171644f
C188 a_2812_375# VSUBS 0.171644f
C189 a_2364_375# VSUBS 0.171644f
C190 a_1916_375# VSUBS 0.171644f
C191 a_1468_375# VSUBS 0.171644f
C192 a_1020_375# VSUBS 0.171644f
C193 a_572_375# VSUBS 0.171644f
C194 a_124_375# VSUBS 0.185708f
.ends

.subckt gf180mcu_fd_sc_mcu7t5v0__fillcap_32$1 VDD VSS VPW VNW a_1916_375# a_1380_472#
+ a_3260_375# a_36_472# a_932_472# a_2812_375# a_2276_472# a_1828_472# a_3172_472#
+ a_572_375# a_2724_472# a_124_375# a_1468_375# a_1020_375# a_484_472# a_2364_375#
+ VSUBS
X0 VDD a_572_375# a_484_472# VNW pfet_06v0 ad=0.5368p pd=3.32u as=0.5368p ps=3.32u w=1.22u l=1u
X1 VDD a_2364_375# a_2276_472# VNW pfet_06v0 ad=0.5368p pd=3.32u as=0.5368p ps=3.32u w=1.22u l=1u
X2 a_572_375# a_484_472# VSS VSUBS nfet_06v0 ad=0.3608p pd=2.52u as=0.3608p ps=2.52u w=0.82u l=1u
X3 VDD a_1916_375# a_1828_472# VNW pfet_06v0 ad=0.5368p pd=3.32u as=0.5368p ps=3.32u w=1.22u l=1u
X4 a_124_375# a_36_472# VSS VSUBS nfet_06v0 ad=0.3608p pd=2.52u as=0.3608p ps=2.52u w=0.82u l=1u
X5 a_1916_375# a_1828_472# VSS VSUBS nfet_06v0 ad=0.3608p pd=2.52u as=0.3608p ps=2.52u w=0.82u l=1u
X6 a_1468_375# a_1380_472# VSS VSUBS nfet_06v0 ad=0.3608p pd=2.52u as=0.3608p ps=2.52u w=0.82u l=1u
X7 a_2812_375# a_2724_472# VSS VSUBS nfet_06v0 ad=0.3608p pd=2.52u as=0.3608p ps=2.52u w=0.82u l=1u
X8 VDD a_3260_375# a_3172_472# VNW pfet_06v0 ad=0.5368p pd=3.32u as=0.5368p ps=3.32u w=1.22u l=1u
X9 a_2364_375# a_2276_472# VSS VSUBS nfet_06v0 ad=0.3608p pd=2.52u as=0.3608p ps=2.52u w=0.82u l=1u
X10 VDD a_2812_375# a_2724_472# VNW pfet_06v0 ad=0.5368p pd=3.32u as=0.5368p ps=3.32u w=1.22u l=1u
X11 a_3260_375# a_3172_472# VSS VSUBS nfet_06v0 ad=0.3608p pd=2.52u as=0.3608p ps=2.52u w=0.82u l=1u
X12 VDD a_1020_375# a_932_472# VNW pfet_06v0 ad=0.5368p pd=3.32u as=0.5368p ps=3.32u w=1.22u l=1u
X13 VDD a_1468_375# a_1380_472# VNW pfet_06v0 ad=0.5368p pd=3.32u as=0.5368p ps=3.32u w=1.22u l=1u
X14 VDD a_124_375# a_36_472# VNW pfet_06v0 ad=0.5368p pd=3.32u as=0.5368p ps=3.32u w=1.22u l=1u
X15 a_1020_375# a_932_472# VSS VSUBS nfet_06v0 ad=0.3608p pd=2.52u as=0.3608p ps=2.52u w=0.82u l=1u
C0 a_124_375# a_484_472# 0.087174f
C1 a_2364_375# a_2724_472# 0.087174f
C2 a_2364_375# a_1916_375# 0.013103f
C3 a_3172_472# VNW 0.024396f
C4 a_1828_472# a_2276_472# 0.013276f
C5 a_2276_472# VNW 0.024018f
C6 a_124_375# a_36_472# 0.285629f
C7 a_1828_472# VSS 0.142721f
C8 VSS VNW 0.035286f
C9 a_2812_375# VDD 0.129962f
C10 a_1020_375# VNW 0.181468f
C11 a_36_472# a_484_472# 0.013276f
C12 a_3172_472# a_2724_472# 0.013276f
C13 VDD a_3260_375# 0.129266f
C14 a_2276_472# a_2724_472# 0.013276f
C15 VSS a_2724_472# 0.142721f
C16 a_1828_472# a_1380_472# 0.013276f
C17 VNW a_1380_472# 0.024018f
C18 a_2276_472# a_1916_375# 0.087174f
C19 VSS a_1916_375# 0.131736f
C20 a_124_375# VNW 0.180172f
C21 a_572_375# a_932_472# 0.087174f
C22 VNW a_484_472# 0.024018f
C23 a_2364_375# VDD 0.129962f
C24 a_572_375# VDD 0.129962f
C25 VSS a_1468_375# 0.131736f
C26 a_1020_375# a_1468_375# 0.013103f
C27 a_2812_375# a_3260_375# 0.013103f
C28 VNW a_36_472# 0.025611f
C29 VSS a_932_472# 0.142721f
C30 a_3172_472# VDD 0.179463f
C31 a_1468_375# a_1380_472# 0.285629f
C32 a_1020_375# a_932_472# 0.285629f
C33 a_2276_472# VDD 0.179463f
C34 VSS VDD 0.052737f
C35 a_1020_375# VDD 0.129962f
C36 a_2812_375# a_2364_375# 0.013103f
C37 a_932_472# a_1380_472# 0.013276f
C38 VDD a_1380_472# 0.179463f
C39 a_1828_472# VNW 0.024018f
C40 a_124_375# VDD 0.12673f
C41 a_484_472# a_932_472# 0.013276f
C42 a_3172_472# a_2812_375# 0.087174f
C43 VDD a_484_472# 0.179463f
C44 a_2812_375# VSS 0.131736f
C45 VNW a_2724_472# 0.024018f
C46 a_3172_472# a_3260_375# 0.285629f
C47 a_1828_472# a_1916_375# 0.285629f
C48 VNW a_1916_375# 0.181468f
C49 VSS a_3260_375# 0.081304f
C50 VDD a_36_472# 0.093681f
C51 a_1828_472# a_1468_375# 0.087174f
C52 VNW a_1468_375# 0.181468f
C53 a_2276_472# a_2364_375# 0.285629f
C54 VSS a_2364_375# 0.131736f
C55 a_572_375# VSS 0.131736f
C56 a_572_375# a_1020_375# 0.013103f
C57 VNW a_932_472# 0.024018f
C58 a_1468_375# a_1916_375# 0.013103f
C59 a_1828_472# VDD 0.179463f
C60 VNW VDD 0.425768f
C61 a_3172_472# VSS 0.139489f
C62 a_2276_472# VSS 0.142721f
C63 a_1020_375# VSS 0.131736f
C64 a_124_375# a_572_375# 0.013103f
C65 VDD a_2724_472# 0.179463f
C66 a_572_375# a_484_472# 0.285629f
C67 VDD a_1916_375# 0.129962f
C68 VSS a_1380_472# 0.142721f
C69 a_1020_375# a_1380_472# 0.087174f
C70 a_2812_375# VNW 0.181468f
C71 a_124_375# VSS 0.131736f
C72 VDD a_1468_375# 0.129962f
C73 VNW a_3260_375# 0.18122f
C74 VSS a_484_472# 0.142721f
C75 a_2812_375# a_2724_472# 0.285629f
C76 VDD a_932_472# 0.179463f
C77 VSS a_36_472# 0.142026f
C78 VNW a_2364_375# 0.181468f
C79 a_572_375# VNW 0.181468f
C80 VSS VSUBS 1.20585f
C81 VDD VSUBS 0.907304f
C82 VNW VSUBS 5.83682f
C83 a_3172_472# VSUBS 0.345058f
C84 a_2724_472# VSUBS 0.33241f
C85 a_2276_472# VSUBS 0.33241f
C86 a_1828_472# VSUBS 0.33241f
C87 a_1380_472# VSUBS 0.33241f
C88 a_932_472# VSUBS 0.33241f
C89 a_484_472# VSUBS 0.33241f
C90 a_36_472# VSUBS 0.404746f
C91 a_3260_375# VSUBS 0.233093f
C92 a_2812_375# VSUBS 0.17167f
C93 a_2364_375# VSUBS 0.17167f
C94 a_1916_375# VSUBS 0.17167f
C95 a_1468_375# VSUBS 0.17167f
C96 a_1020_375# VSUBS 0.17167f
C97 a_572_375# VSUBS 0.17167f
C98 a_124_375# VSUBS 0.185915f
.ends

.subckt gf180mcu_fd_sc_mcu7t5v0__antenna$1 VSS I VDD VPW VNW VSUBS
D0 VSUBS I diode_nd2ps_06v0 pj=1.86u area=0.2052p
D1 I VNW diode_pd2nw_06v0 pj=1.86u area=0.2052p
C0 VSS VDD 0.009725f
C1 VDD VNW 0.048519f
C2 VDD I 0.017439f
C3 VSS VNW 0.007461f
C4 VSS I 0.031625f
C5 VNW I 0.027206f
C6 VSS VSUBS 0.12617f
C7 VDD VSUBS 0.087026f
C8 I VSUBS 0.139667f
C9 VNW VSUBS 0.615384f
.ends

.subckt gf180mcu_fd_sc_mcu7t5v0__fillcap_4$1 VDD VSS VPW VNW a_36_472# a_124_375#
+ VSUBS
X0 a_124_375# a_36_472# VSS VSUBS nfet_06v0 ad=0.3608p pd=2.52u as=0.3608p ps=2.52u w=0.82u l=1u
X1 VDD a_124_375# a_36_472# VNW pfet_06v0 ad=0.5368p pd=3.32u as=0.5368p ps=3.32u w=1.22u l=1u
C0 VDD VNW 0.061035f
C1 VNW a_124_375# 0.179924f
C2 VSS VNW 0.004411f
C3 VNW a_36_472# 0.025989f
C4 VDD a_124_375# 0.126034f
C5 VDD VSS 0.006592f
C6 VSS a_124_375# 0.082879f
C7 VDD a_36_472# 0.093681f
C8 a_124_375# a_36_472# 0.285629f
C9 VSS a_36_472# 0.150876f
C10 VSS VSUBS 0.218985f
C11 VDD VSUBS 0.182777f
C12 VNW VSUBS 0.96348f
C13 a_36_472# VSUBS 0.417394f
C14 a_124_375# VSUBS 0.246306f
.ends

.subckt gf180mcu_fd_sc_mcu7t5v0__fillcap_8$1 VDD VSS VPW VNW a_36_472# a_572_375#
+ a_124_375# a_484_472# VSUBS
X0 VDD a_572_375# a_484_472# VNW pfet_06v0 ad=0.5368p pd=3.32u as=0.5368p ps=3.32u w=1.22u l=1u
X1 a_572_375# a_484_472# VSS VSUBS nfet_06v0 ad=0.3608p pd=2.52u as=0.3608p ps=2.52u w=0.82u l=1u
X2 a_124_375# a_36_472# VSS VSUBS nfet_06v0 ad=0.3608p pd=2.52u as=0.3608p ps=2.52u w=0.82u l=1u
X3 VDD a_124_375# a_36_472# VNW pfet_06v0 ad=0.5368p pd=3.32u as=0.5368p ps=3.32u w=1.22u l=1u
C0 a_484_472# a_36_472# 0.013276f
C1 VSS VDD 0.013184f
C2 a_36_472# a_124_375# 0.285629f
C3 VDD a_572_375# 0.129266f
C4 VNW a_36_472# 0.025611f
C5 VSS a_36_472# 0.151218f
C6 a_484_472# a_124_375# 0.086742f
C7 a_484_472# VNW 0.024396f
C8 VNW a_124_375# 0.180172f
C9 a_36_472# VDD 0.093681f
C10 VSS a_484_472# 0.148682f
C11 a_484_472# a_572_375# 0.285629f
C12 VSS a_124_375# 0.136476f
C13 VSS VNW 0.008822f
C14 a_124_375# a_572_375# 0.012222f
C15 VNW a_572_375# 0.18122f
C16 a_484_472# VDD 0.179463f
C17 VDD a_124_375# 0.12673f
C18 VSS a_572_375# 0.082563f
C19 VNW VDD 0.11314f
C20 VSS VSUBS 0.360066f
C21 VDD VSUBS 0.286281f
C22 VNW VSUBS 1.65967f
C23 a_484_472# VSUBS 0.345058f
C24 a_36_472# VSUBS 0.404746f
C25 a_572_375# VSUBS 0.232991f
C26 a_124_375# VSUBS 0.185089f
.ends

.subckt gf180mcu_fd_sc_mcu7t5v0__inv_1$1 VSS ZN I VDD VPW VNW VSUBS
X0 ZN I VSS VSUBS nfet_06v0 ad=0.3608p pd=2.52u as=0.3608p ps=2.52u w=0.82u l=0.6u
X1 ZN I VDD VNW pfet_06v0 ad=0.5368p pd=3.32u as=0.5368p ps=3.32u w=1.22u l=0.5u
C0 VDD VNW 0.076257f
C1 VSS VNW 0.011339f
C2 VDD ZN 0.137375f
C3 I VDD 0.041847f
C4 VSS ZN 0.115297f
C5 I VSS 0.0533f
C6 VDD VSS 0.025626f
C7 ZN VNW 0.022202f
C8 I VNW 0.137757f
C9 I ZN 0.262199f
C10 VSS VSUBS 0.2316f
C11 ZN VSUBS 0.113404f
C12 VDD VSUBS 0.181139f
C13 I VSUBS 0.341982f
C14 VNW VSUBS 0.96348f
.ends

.subckt gf180mcu_fd_sc_mcu7t5v0__clkinv_1$1 VDD VSS I ZN VPW VNW VSUBS
X0 ZN I VSS VSUBS nfet_06v0 ad=0.2112p pd=1.84u as=0.2112p ps=1.84u w=0.48u l=0.6u
X1 ZN I VDD VNW pfet_06v0 ad=0.5368p pd=3.32u as=0.5368p ps=3.32u w=1.22u l=0.5u
C0 VDD VNW 0.076212f
C1 VSS VNW 0.011085f
C2 VDD ZN 0.098026f
C3 I VDD 0.157124f
C4 VSS ZN 0.077008f
C5 I VSS 0.058937f
C6 VDD VSS 0.025441f
C7 ZN VNW 0.031181f
C8 I VNW 0.135368f
C9 I ZN 0.47009f
C10 VSS VSUBS 0.242183f
C11 ZN VSUBS 0.095505f
C12 VDD VSUBS 0.182097f
C13 I VSUBS 0.355642f
C14 VNW VSUBS 0.96348f
.ends

.subckt gf180mcu_fd_sc_mcu7t5v0__clkbuf_1$1 VSS Z I VDD VPW VNW a_36_113# VSUBS
X0 VDD I a_36_113# VNW pfet_06v0 ad=0.4015p pd=1.92u as=0.462p ps=2.98u w=1.05u l=0.5u
X1 Z a_36_113# VDD VNW pfet_06v0 ad=0.5368p pd=3.32u as=0.4015p ps=1.92u w=1.22u l=0.5u
X2 Z a_36_113# VSS VSUBS nfet_06v0 ad=0.2178p pd=1.87u as=0.153p ps=1.195u w=0.495u l=0.6u
X3 VSS I a_36_113# VSUBS nfet_06v0 ad=0.153p pd=1.195u as=0.1584p ps=1.6u w=0.36u l=0.6u
C0 I a_36_113# 0.476912f
C1 Z a_36_113# 0.191876f
C2 VSS a_36_113# 0.11114f
C3 I VDD 0.028968f
C4 VNW I 0.152645f
C5 Z VDD 0.085355f
C6 VNW Z 0.030118f
C7 VSS VDD 0.009561f
C8 VNW VSS 0.009307f
C9 I Z 0.031362f
C10 I VSS 0.070302f
C11 Z VSS 0.136942f
C12 VDD a_36_113# 0.278283f
C13 VNW a_36_113# 0.160792f
C14 VNW VDD 0.088196f
C15 VSS VSUBS 0.283681f
C16 Z VSUBS 0.117185f
C17 VDD VSUBS 0.180237f
C18 I VSUBS 0.336876f
C19 VNW VSUBS 1.31158f
C20 a_36_113# VSUBS 0.418095f
.ends

.subckt gf180mcu_fd_sc_mcu7t5v0__buf_1$1 VSS Z I VDD VPW VNW a_36_160# VSUBS
X0 Z a_36_160# VSS VSUBS nfet_06v0 ad=0.3608p pd=2.52u as=0.2344p ps=1.56u w=0.82u l=0.6u
X1 Z a_36_160# VDD VNW pfet_06v0 ad=0.5368p pd=3.32u as=0.35315p ps=1.96u w=1.22u l=0.5u
X2 VDD I a_36_160# VNW pfet_06v0 ad=0.35315p pd=1.96u as=0.2486p ps=2.01u w=0.565u l=0.5u
X3 VSS I a_36_160# VSUBS nfet_06v0 ad=0.2344p pd=1.56u as=0.1584p ps=1.6u w=0.36u l=0.6u
C0 I VSS 0.12329f
C1 I a_36_160# 0.545454f
C2 I VDD 0.02612f
C3 I VNW 0.2276f
C4 Z VSS 0.146199f
C5 a_36_160# Z 0.281838f
C6 VDD Z 0.128274f
C7 VNW Z 0.030347f
C8 a_36_160# VSS 0.074156f
C9 VDD VSS 0.009574f
C10 VNW VSS 0.009324f
C11 a_36_160# VDD 0.2736f
C12 I Z 0.041707f
C13 a_36_160# VNW 0.170864f
C14 VNW VDD 0.087464f
C15 VSS VSUBS 0.28275f
C16 Z VSUBS 0.10469f
C17 VDD VSUBS 0.178615f
C18 I VSUBS 0.323491f
C19 VNW VSUBS 1.31158f
C20 a_36_160# VSUBS 0.386641f
.ends

.subckt phase_inverter input_signal[0] input_signal[1] input_signal[2] input_signal[3]
+ input_signal[4] input_signal[5] input_signal[9] output_signal_minus[1] output_signal_minus[2]
+ output_signal_minus[3] output_signal_minus[4] output_signal_minus[5] output_signal_minus[6]
+ output_signal_minus[7] output_signal_minus[8] output_signal_minus[9] output_signal_plus[1]
+ output_signal_plus[2] output_signal_plus[3] output_signal_plus[4] output_signal_plus[5]
+ output_signal_plus[6] output_signal_plus[7] _10_/Z input_signal[7] _19_/Z FILLER_0_0_12/a_484_472#
+ FILLER_0_0_36/a_2276_472# _08_/ZN FILLER_0_16_36/a_2364_375# input_signal[8] output18/a_224_472#
+ _19_/I _00_/ZN output_signal_plus[0] _10_/I output_signal_plus[9] FILLER_0_16_36/a_124_375#
+ output20/a_224_472# output30/a_224_472# input_signal[6] FILLER_0_0_36/a_36_472#
+ output21/a_224_472# FILLER_0_16_18/a_124_375# output_signal_minus[0] output_signal_plus[8]
+ vdd vss
XFILLER_0_1_72 vdd vss FILLER_0_1_72/VPW vdd FILLER_0_1_72/a_1380_472# FILLER_0_1_72/a_36_472#
+ FILLER_0_1_72/a_932_472# FILLER_0_1_72/a_572_375# FILLER_0_1_72/a_124_375# FILLER_0_1_72/a_1468_375#
+ FILLER_0_1_72/a_1020_375# FILLER_0_1_72/a_484_472# vss gf180mcu_fd_sc_mcu7t5v0__fillcap_16$1
Xoutput20 output_signal_minus[9] _00_/ZN vdd vss output20/VPW vdd output20/a_224_472#
+ vss gf180mcu_fd_sc_mcu7t5v0__buf_8$1
Xoutput21 output_signal_plus[0] _10_/Z vdd vss output21/VPW vdd output21/a_224_472#
+ vss gf180mcu_fd_sc_mcu7t5v0__buf_8$1
XFILLER_0_9_2 vdd vss FILLER_0_9_2/VPW vdd FILLER_0_9_2/a_1916_375# FILLER_0_9_2/a_4516_472#
+ FILLER_0_9_2/a_1380_472# FILLER_0_9_2/a_3260_375# FILLER_0_9_2/a_5860_472# FILLER_0_9_2/a_36_472#
+ FILLER_0_9_2/a_932_472# FILLER_0_9_2/a_2812_375# FILLER_0_9_2/a_5412_472# FILLER_0_9_2/a_2276_472#
+ FILLER_0_9_2/a_4156_375# FILLER_0_9_2/a_6756_472# FILLER_0_9_2/a_1828_472# FILLER_0_9_2/a_3708_375#
+ FILLER_0_9_2/a_3172_472# FILLER_0_9_2/a_572_375# FILLER_0_9_2/a_6308_472# FILLER_0_9_2/a_5052_375#
+ FILLER_0_9_2/a_2724_472# FILLER_0_9_2/a_6396_375# FILLER_0_9_2/a_4604_375# FILLER_0_9_2/a_124_375#
+ FILLER_0_9_2/a_1468_375# FILLER_0_9_2/a_4068_472# FILLER_0_9_2/a_5948_375# FILLER_0_9_2/a_3620_472#
+ FILLER_0_9_2/a_1020_375# FILLER_0_9_2/a_5500_375# FILLER_0_9_2/a_4964_472# FILLER_0_9_2/a_484_472#
+ FILLER_0_9_2/a_2364_375# FILLER_0_9_2/a_6844_375# vss gf180mcu_fd_sc_mcu7t5v0__fillcap_64
XFILLER_0_7_72 vdd vss FILLER_0_7_72/VPW vdd FILLER_0_7_72/a_1916_375# FILLER_0_7_72/a_1380_472#
+ FILLER_0_7_72/a_3260_375# FILLER_0_7_72/a_36_472# FILLER_0_7_72/a_932_472# FILLER_0_7_72/a_2812_375#
+ FILLER_0_7_72/a_2276_472# FILLER_0_7_72/a_1828_472# FILLER_0_7_72/a_3172_472# FILLER_0_7_72/a_572_375#
+ FILLER_0_7_72/a_2724_472# FILLER_0_7_72/a_124_375# FILLER_0_7_72/a_1468_375# FILLER_0_7_72/a_1020_375#
+ FILLER_0_7_72/a_484_472# FILLER_0_7_72/a_2364_375# vss gf180mcu_fd_sc_mcu7t5v0__fillcap_32$1
XANTENNA_input3_I vss input_signal[2] vdd ANTENNA_input3_I/VPW vdd vss gf180mcu_fd_sc_mcu7t5v0__antenna$1
Xoutput22 output_signal_plus[1] _11_/Z vdd vss output22/VPW vdd output22/a_224_472#
+ vss gf180mcu_fd_sc_mcu7t5v0__buf_8$1
Xoutput11 output_signal_minus[0] _01_/ZN vdd vss output11/VPW vdd output11/a_224_472#
+ vss gf180mcu_fd_sc_mcu7t5v0__buf_8$1
XFILLER_0_12_101 vdd vss FILLER_0_12_101/VPW vdd FILLER_0_12_101/a_36_472# FILLER_0_12_101/a_124_375#
+ vss gf180mcu_fd_sc_mcu7t5v0__fillcap_4$1
Xoutput23 output_signal_plus[2] _12_/Z vdd vss output23/VPW vdd output23/a_224_472#
+ vss gf180mcu_fd_sc_mcu7t5v0__buf_8$1
Xoutput12 output_signal_minus[1] _02_/ZN vdd vss output12/VPW vdd output12/a_224_472#
+ vss gf180mcu_fd_sc_mcu7t5v0__buf_8$1
XFILLER_0_13_66 vdd vss FILLER_0_13_66/VPW vdd FILLER_0_13_66/a_36_472# FILLER_0_13_66/a_124_375#
+ vss gf180mcu_fd_sc_mcu7t5v0__fillcap_4$1
XFILLER_0_10_12 vdd vss FILLER_0_10_12/VPW vdd FILLER_0_10_12/a_1380_472# FILLER_0_10_12/a_36_472#
+ FILLER_0_10_12/a_932_472# FILLER_0_10_12/a_572_375# FILLER_0_10_12/a_124_375# FILLER_0_10_12/a_1468_375#
+ FILLER_0_10_12/a_1020_375# FILLER_0_10_12/a_484_472# vss gf180mcu_fd_sc_mcu7t5v0__fillcap_16$1
Xoutput24 output_signal_plus[3] _13_/Z vdd vss output24/VPW vdd output24/a_224_472#
+ vss gf180mcu_fd_sc_mcu7t5v0__buf_8$1
XFILLER_0_8_107 vdd vss FILLER_0_8_107/VPW vdd FILLER_0_8_107/a_36_472# FILLER_0_8_107/a_572_375#
+ FILLER_0_8_107/a_124_375# FILLER_0_8_107/a_484_472# vss gf180mcu_fd_sc_mcu7t5v0__fillcap_8$1