* NGSPICE file created from phase_inverter.ext - technology: gf180mcuD

.subckt gf180mcu_fd_sc_mcu7t5v0__fillcap_16 VDD VSS VNW VPW a_36_472# a_1468_375#
+ VSUBS
X0 VDD a_572_375# a_484_472# VNW pfet_06v0 ad=0.5368p pd=3.32u as=0.5368p ps=3.32u w=1.22u l=1u
X1 a_572_375# a_484_472# VSS VSUBS nfet_06v0 ad=0.3608p pd=2.52u as=0.3608p ps=2.52u w=0.82u l=1u
X2 a_124_375# a_36_472# VSS VSUBS nfet_06v0 ad=0.3608p pd=2.52u as=0.3608p ps=2.52u w=0.82u l=1u
X3 a_1468_375# a_1380_472# VSS VSUBS nfet_06v0 ad=0.3608p pd=2.52u as=0.3608p ps=2.52u w=0.82u l=1u
X4 VDD a_1020_375# a_932_472# VNW pfet_06v0 ad=0.5368p pd=3.32u as=0.5368p ps=3.32u w=1.22u l=1u
X5 VDD a_1468_375# a_1380_472# VNW pfet_06v0 ad=0.5368p pd=3.32u as=0.5368p ps=3.32u w=1.22u l=1u
X6 VDD a_124_375# a_36_472# VNW pfet_06v0 ad=0.5368p pd=3.32u as=0.5368p ps=3.32u w=1.22u l=1u
X7 a_1020_375# a_932_472# VSS VSUBS nfet_06v0 ad=0.3608p pd=2.52u as=0.3608p ps=2.52u w=0.82u l=1u
C0 a_1468_375# VNW 0.18122f
C1 VDD a_124_375# 0.12673f
C2 VNW a_572_375# 0.181468f
C3 a_1020_375# a_932_472# 0.285629f
C4 VSS a_572_375# 0.134699f
C5 a_572_375# a_484_472# 0.285629f
C6 VSS a_932_472# 0.148077f
C7 a_1380_472# VSS 0.144845f
C8 VNW VDD 0.217349f
C9 a_1020_375# VDD 0.129962f
C10 a_36_472# a_124_375# 0.285629f
C11 VDD a_484_472# 0.179463f
C12 a_1468_375# a_1380_472# 0.285629f
C13 VNW a_124_375# 0.180172f
C14 a_1468_375# VDD 0.129266f
C15 VSS a_124_375# 0.134699f
C16 VDD a_572_375# 0.129962f
C17 VDD a_932_472# 0.179463f
C18 VSS a_36_472# 0.147381f
C19 a_1380_472# VDD 0.179463f
C20 a_1020_375# VNW 0.181468f
C21 a_1020_375# VSS 0.134699f
C22 VSS a_484_472# 0.148077f
C23 VSS VSUBS 0.642184f
C24 VDD VSUBS 0.493288f
C25 VNW VSUBS 3.05206f
C26 a_1380_472# VSUBS 0.345058f
C27 a_932_472# VSUBS 0.33241f
C28 a_484_472# VSUBS 0.33241f
C29 a_36_472# VSUBS 0.404746f
C30 a_1468_375# VSUBS 0.233029f
C31 a_1020_375# VSUBS 0.171606f
C32 a_572_375# VSUBS 0.171606f
C33 a_124_375# VSUBS 0.185399f
.ends

.subckt gf180mcu_fd_sc_mcu7t5v0__buf_8 Z I VDD VSS VNW VPW a_224_472# VSUBS
X0 a_224_472# I VDD VNW pfet_06v0 ad=0.3782p pd=1.84u as=0.3782p ps=1.84u w=1.22u l=0.5u
X1 Z a_224_472# VDD VNW pfet_06v0 ad=0.3782p pd=1.84u as=0.3782p ps=1.84u w=1.22u l=0.5u
X2 a_224_472# I VSS VSUBS nfet_06v0 ad=0.2132p pd=1.34u as=0.2132p ps=1.34u w=0.82u l=0.6u
X3 VSS a_224_472# Z VSUBS nfet_06v0 ad=0.3608p pd=2.52u as=0.2132p ps=1.34u w=0.82u l=0.6u
X4 VDD a_224_472# Z VNW pfet_06v0 ad=0.3782p pd=1.84u as=0.3782p ps=1.84u w=1.22u l=0.5u
X5 Z a_224_472# VDD VNW pfet_06v0 ad=0.3782p pd=1.84u as=0.3782p ps=1.84u w=1.22u l=0.5u
X6 a_224_472# I VSS VSUBS nfet_06v0 ad=0.2132p pd=1.34u as=0.3608p ps=2.52u w=0.82u l=0.6u
X7 Z a_224_472# VSS VSUBS nfet_06v0 ad=0.2132p pd=1.34u as=0.2132p ps=1.34u w=0.82u l=0.6u
X8 VDD a_224_472# Z VNW pfet_06v0 ad=0.3782p pd=1.84u as=0.3782p ps=1.84u w=1.22u l=0.5u
X9 Z a_224_472# VSS VSUBS nfet_06v0 ad=0.2132p pd=1.34u as=0.2132p ps=1.34u w=0.82u l=0.6u
X10 Z a_224_472# VSS VSUBS nfet_06v0 ad=0.2132p pd=1.34u as=0.2132p ps=1.34u w=0.82u l=0.6u
X11 VDD I a_224_472# VNW pfet_06v0 ad=0.3782p pd=1.84u as=0.3782p ps=1.84u w=1.22u l=0.5u
X12 VDD a_224_472# Z VNW pfet_06v0 ad=0.3782p pd=1.84u as=0.3782p ps=1.84u w=1.22u l=0.5u
X13 Z a_224_472# VDD VNW pfet_06v0 ad=0.3782p pd=1.84u as=0.3782p ps=1.84u w=1.22u l=0.5u
X14 VSS a_224_472# Z VSUBS nfet_06v0 ad=0.2132p pd=1.34u as=0.2132p ps=1.34u w=0.82u l=0.6u
X15 VDD I a_224_472# VNW pfet_06v0 ad=0.3782p pd=1.84u as=0.3782p ps=1.84u w=1.22u l=0.5u
X16 VSS a_224_472# Z VSUBS nfet_06v0 ad=0.2132p pd=1.34u as=0.2132p ps=1.34u w=0.82u l=0.6u
X17 VDD a_224_472# Z VNW pfet_06v0 ad=0.5368p pd=3.32u as=0.3782p ps=1.84u w=1.22u l=0.5u
X18 VSS a_224_472# Z VSUBS nfet_06v0 ad=0.2132p pd=1.34u as=0.2132p ps=1.34u w=0.82u l=0.6u
X19 Z a_224_472# VDD VNW pfet_06v0 ad=0.3782p pd=1.84u as=0.3782p ps=1.84u w=1.22u l=0.5u
X20 VSS I a_224_472# VSUBS nfet_06v0 ad=0.2132p pd=1.34u as=0.2132p ps=1.34u w=0.82u l=0.6u
X21 a_224_472# I VDD VNW pfet_06v0 ad=0.3782p pd=1.84u as=0.5368p ps=3.32u w=1.22u l=0.5u
X22 VSS I a_224_472# VSUBS nfet_06v0 ad=0.2132p pd=1.34u as=0.2132p ps=1.34u w=0.82u l=0.6u
X23 Z a_224_472# VSS VSUBS nfet_06v0 ad=0.2132p pd=1.34u as=0.2132p ps=1.34u w=0.82u l=0.6u
C0 VSS a_224_472# 0.659695f
C1 I a_224_472# 0.796069f
C2 Z a_224_472# 2.29481f
C3 VNW I 0.55539f
C4 I VDD 0.1311f
C5 VDD Z 0.819024f
C6 VNW a_224_472# 1.14633f
C7 VDD a_224_472# 0.74621f
C8 VSS I 0.158668f
C9 VSS Z 0.70427f
C10 VNW VDD 0.305516f
C11 VSS VSUBS 0.910368f
C12 Z VSUBS 0.18914f
C13 VDD VSUBS 0.724491f
C14 I VSUBS 1.16773f
C15 VNW VSUBS 4.79254f
C16 a_224_472# VSUBS 2.38465f
.ends

.subckt gf180mcu_fd_sc_mcu7t5v0__fillcap_64 VDD VSS VNW VPW a_36_472# VSUBS
X0 a_4604_375# a_4516_472# VSS VSUBS nfet_06v0 ad=0.3608p pd=2.52u as=0.3608p ps=2.52u w=0.82u l=1u
X1 VDD a_572_375# a_484_472# VNW pfet_06v0 ad=0.5368p pd=3.32u as=0.5368p ps=3.32u w=1.22u l=1u
X2 VDD a_2364_375# a_2276_472# VNW pfet_06v0 ad=0.5368p pd=3.32u as=0.5368p ps=3.32u w=1.22u l=1u
X3 a_4156_375# a_4068_472# VSS VSUBS nfet_06v0 ad=0.3608p pd=2.52u as=0.3608p ps=2.52u w=0.82u l=1u
X4 a_5500_375# a_5412_472# VSS VSUBS nfet_06v0 ad=0.3608p pd=2.52u as=0.3608p ps=2.52u w=0.82u l=1u
X5 a_572_375# a_484_472# VSS VSUBS nfet_06v0 ad=0.3608p pd=2.52u as=0.3608p ps=2.52u w=0.82u l=1u
X6 VDD a_5052_375# a_4964_472# VNW pfet_06v0 ad=0.5368p pd=3.32u as=0.5368p ps=3.32u w=1.22u l=1u
X7 VDD a_6844_375# a_6756_472# VNW pfet_06v0 ad=0.5368p pd=3.32u as=0.5368p ps=3.32u w=1.22u l=1u
X8 VDD a_1916_375# a_1828_472# VNW pfet_06v0 ad=0.5368p pd=3.32u as=0.5368p ps=3.32u w=1.22u l=1u
X9 a_124_375# a_36_472# VSS VSUBS nfet_06v0 ad=0.3608p pd=2.52u as=0.3608p ps=2.52u w=0.82u l=1u
X10 a_5052_375# a_4964_472# VSS VSUBS nfet_06v0 ad=0.3608p pd=2.52u as=0.3608p ps=2.52u w=0.82u l=1u
X11 a_1916_375# a_1828_472# VSS VSUBS nfet_06v0 ad=0.3608p pd=2.52u as=0.3608p ps=2.52u w=0.82u l=1u
X12 VDD a_4604_375# a_4516_472# VNW pfet_06v0 ad=0.5368p pd=3.32u as=0.5368p ps=3.32u w=1.22u l=1u
X13 a_1468_375# a_1380_472# VSS VSUBS nfet_06v0 ad=0.3608p pd=2.52u as=0.3608p ps=2.52u w=0.82u l=1u
X14 a_2812_375# a_2724_472# VSS VSUBS nfet_06v0 ad=0.3608p pd=2.52u as=0.3608p ps=2.52u w=0.82u l=1u
X15 VDD a_3260_375# a_3172_472# VNW pfet_06v0 ad=0.5368p pd=3.32u as=0.5368p ps=3.32u w=1.22u l=1u
X16 a_2364_375# a_2276_472# VSS VSUBS nfet_06v0 ad=0.3608p pd=2.52u as=0.3608p ps=2.52u w=0.82u l=1u
X17 a_5948_375# a_5860_472# VSS VSUBS nfet_06v0 ad=0.3608p pd=2.52u as=0.3608p ps=2.52u w=0.82u l=1u
X18 VDD a_2812_375# a_2724_472# VNW pfet_06v0 ad=0.5368p pd=3.32u as=0.5368p ps=3.32u w=1.22u l=1u
X19 a_3260_375# a_3172_472# VSS VSUBS nfet_06v0 ad=0.3608p pd=2.52u as=0.3608p ps=2.52u w=0.82u l=1u
X20 VDD a_1020_375# a_932_472# VNW pfet_06v0 ad=0.5368p pd=3.32u as=0.5368p ps=3.32u w=1.22u l=1u
X21 VDD a_5500_375# a_5412_472# VNW pfet_06v0 ad=0.5368p pd=3.32u as=0.5368p ps=3.32u w=1.22u l=1u
X22 a_6844_375# a_6756_472# VSS VSUBS nfet_06v0 ad=0.3608p pd=2.52u as=0.3608p ps=2.52u w=0.82u l=1u
X23 a_6396_375# a_6308_472# VSS VSUBS nfet_06v0 ad=0.3608p pd=2.52u as=0.3608p ps=2.52u w=0.82u l=1u
X24 VDD a_6396_375# a_6308_472# VNW pfet_06v0 ad=0.5368p pd=3.32u as=0.5368p ps=3.32u w=1.22u l=1u
X25 VDD a_1468_375# a_1380_472# VNW pfet_06v0 ad=0.5368p pd=3.32u as=0.5368p ps=3.32u w=1.22u l=1u
X26 VDD a_4156_375# a_4068_472# VNW pfet_06v0 ad=0.5368p pd=3.32u as=0.5368p ps=3.32u w=1.22u l=1u
X27 VDD a_5948_375# a_5860_472# VNW pfet_06v0 ad=0.5368p pd=3.32u as=0.5368p ps=3.32u w=1.22u l=1u
X28 VDD a_124_375# a_36_472# VNW pfet_06v0 ad=0.5368p pd=3.32u as=0.5368p ps=3.32u w=1.22u l=1u
X29 a_3708_375# a_3620_472# VSS VSUBS nfet_06v0 ad=0.3608p pd=2.52u as=0.3608p ps=2.52u w=0.82u l=1u
X30 VDD a_3708_375# a_3620_472# VNW pfet_06v0 ad=0.5368p pd=3.32u as=0.5368p ps=3.32u w=1.22u l=1u
X31 a_1020_375# a_932_472# VSS VSUBS nfet_06v0 ad=0.3608p pd=2.52u as=0.3608p ps=2.52u w=0.82u l=1u
C0 VNW a_1916_375# 0.181468f
C1 a_2276_472# a_2364_375# 0.285629f
C2 a_6844_375# a_6756_472# 0.285629f
C3 VDD a_4156_375# 0.129962f
C4 VSS a_4964_472# 0.144729f
C5 VDD a_6396_375# 0.129962f
C6 VNW a_6844_375# 0.18122f
C7 VSS a_1828_472# 0.144729f
C8 VDD a_2276_472# 0.179463f
C9 VSS a_1916_375# 0.132921f
C10 VDD a_4604_375# 0.129962f
C11 VDD a_3620_472# 0.179463f
C12 VSS a_3172_472# 0.144729f
C13 VDD a_3260_375# 0.129962f
C14 VDD a_4516_472# 0.179463f
C15 VSS a_4068_472# 0.144729f
C16 VNW a_1468_375# 0.181468f
C17 a_1828_472# a_1916_375# 0.285629f
C18 VNW a_1020_375# 0.181468f
C19 VDD a_5052_375# 0.129962f
C20 VNW a_5500_375# 0.181468f
C21 VDD a_3708_375# 0.129962f
C22 VSS a_5412_472# 0.144729f
C23 VDD a_5860_472# 0.179463f
C24 VSS a_1468_375# 0.132921f
C25 VSS a_1020_375# 0.132921f
C26 VDD a_2812_375# 0.129962f
C27 VSS a_5500_375# 0.132921f
C28 VDD a_5948_375# 0.129962f
C29 VNW a_2364_375# 0.181468f
C30 VSS a_6308_472# 0.144729f
C31 VDD a_6756_472# 0.179463f
C32 a_1020_375# a_932_472# 0.285629f
C33 VNW VDD 0.842606f
C34 VDD a_124_375# 0.12673f
C35 VNW a_572_375# 0.181468f
C36 VDD a_2724_472# 0.179463f
C37 VSS a_2364_375# 0.132921f
C38 a_4516_472# a_4604_375# 0.285629f
C39 VDD VSS 0.105475f
C40 VSS a_572_375# 0.132921f
C41 VSS a_484_472# 0.144729f
C42 VDD a_932_472# 0.179463f
C43 a_3620_472# a_3708_375# 0.285629f
C44 VNW a_4156_375# 0.181468f
C45 VDD a_4964_472# 0.179463f
C46 VNW a_6396_375# 0.181468f
C47 VSS a_1380_472# 0.144729f
C48 VDD a_1828_472# 0.179463f
C49 VDD a_1916_375# 0.129962f
C50 VNW a_4604_375# 0.181468f
C51 VSS a_4156_375# 0.132921f
C52 VDD a_3172_472# 0.179463f
C53 VDD a_6844_375# 0.129266f
C54 VSS a_6396_375# 0.132921f
C55 VSS a_2276_472# 0.144729f
C56 a_5500_375# a_5412_472# 0.285629f
C57 a_36_472# a_124_375# 0.285629f
C58 VSS a_4604_375# 0.132921f
C59 VNW a_3260_375# 0.181468f
C60 VDD a_4068_472# 0.179463f
C61 VSS a_3620_472# 0.144729f
C62 VSS a_36_472# 0.144033f
C63 a_5948_375# a_5860_472# 0.285629f
C64 VNW a_5052_375# 0.181468f
C65 VSS a_3260_375# 0.132921f
C66 VNW a_3708_375# 0.181468f
C67 VDD a_5412_472# 0.179463f
C68 VSS a_4516_472# 0.144729f
C69 VDD a_1468_375# 0.129962f
C70 VDD a_1020_375# 0.129962f
C71 VNW a_2812_375# 0.181468f
C72 VNW a_5948_375# 0.181468f
C73 VSS a_5052_375# 0.132921f
C74 VDD a_5500_375# 0.129962f
C75 VSS a_3708_375# 0.132921f
C76 VDD a_6308_472# 0.179463f
C77 VSS a_5860_472# 0.144729f
C78 a_2724_472# a_2812_375# 0.285629f
C79 a_4068_472# a_4156_375# 0.285629f
C80 VSS a_2812_375# 0.132921f
C81 VNW a_124_375# 0.180172f
C82 VSS a_5948_375# 0.132921f
C83 a_1380_472# a_1468_375# 0.285629f
C84 VDD a_2364_375# 0.129962f
C85 VSS a_6756_472# 0.141496f
C86 a_5052_375# a_4964_472# 0.285629f
C87 a_3172_472# a_3260_375# 0.285629f
C88 VSS a_124_375# 0.132921f
C89 VDD a_572_375# 0.129962f
C90 VSS a_2724_472# 0.144729f
C91 VDD a_484_472# 0.179463f
C92 a_484_472# a_572_375# 0.285629f
C93 a_6396_375# a_6308_472# 0.285629f
C94 VSS a_932_472# 0.144729f
C95 VDD a_1380_472# 0.179463f
C96 VSS VSUBS 2.33708f
C97 VDD VSUBS 1.73533f
C98 VNW VSUBS 11.406401f
C99 a_6756_472# VSUBS 0.345058f
C100 a_6308_472# VSUBS 0.33241f
C101 a_5860_472# VSUBS 0.33241f
C102 a_5412_472# VSUBS 0.33241f
C103 a_4964_472# VSUBS 0.33241f
C104 a_4516_472# VSUBS 0.33241f
C105 a_4068_472# VSUBS 0.33241f
C106 a_3620_472# VSUBS 0.33241f
C107 a_3172_472# VSUBS 0.33241f
C108 a_2724_472# VSUBS 0.33241f
C109 a_2276_472# VSUBS 0.33241f
C110 a_1828_472# VSUBS 0.33241f
C111 a_1380_472# VSUBS 0.33241f
C112 a_932_472# VSUBS 0.33241f
C113 a_484_472# VSUBS 0.33241f
C114 a_36_472# VSUBS 0.404746f
C115 a_6844_375# VSUBS 0.233068f
C116 a_6396_375# VSUBS 0.171644f
C117 a_5948_375# VSUBS 0.171644f
C118 a_5500_375# VSUBS 0.171644f
C119 a_5052_375# VSUBS 0.171644f
C120 a_4604_375# VSUBS 0.171644f
C121 a_4156_375# VSUBS 0.171644f
C122 a_3708_375# VSUBS 0.171644f
C123 a_3260_375# VSUBS 0.171644f
C124 a_2812_375# VSUBS 0.171644f
C125 a_2364_375# VSUBS 0.171644f
C126 a_1916_375# VSUBS 0.171644f
C127 a_1468_375# VSUBS 0.171644f
C128 a_1020_375# VSUBS 0.171644f
C129 a_572_375# VSUBS 0.171644f
C130 a_124_375# VSUBS 0.185708f
.ends

.subckt gf180mcu_fd_sc_mcu7t5v0__fillcap_32 VDD VSS VNW VPW a_36_472# VSUBS
X0 VDD a_572_375# a_484_472# VNW pfet_06v0 ad=0.5368p pd=3.32u as=0.5368p ps=3.32u w=1.22u l=1u
X1 VDD a_2364_375# a_2276_472# VNW pfet_06v0 ad=0.5368p pd=3.32u as=0.5368p ps=3.32u w=1.22u l=1u
X2 a_572_375# a_484_472# VSS VSUBS nfet_06v0 ad=0.3608p pd=2.52u as=0.3608p ps=2.52u w=0.82u l=1u
X3 VDD a_1916_375# a_1828_472# VNW pfet_06v0 ad=0.5368p pd=3.32u as=0.5368p ps=3.32u w=1.22u l=1u
X4 a_124_375# a_36_472# VSS VSUBS nfet_06v0 ad=0.3608p pd=2.52u as=0.3608p ps=2.52u w=0.82u l=1u
X5 a_1916_375# a_1828_472# VSS VSUBS nfet_06v0 ad=0.3608p pd=2.52u as=0.3608p ps=2.52u w=0.82u l=1u
X6 a_1468_375# a_1380_472# VSS VSUBS nfet_06v0 ad=0.3608p pd=2.52u as=0.3608p ps=2.52u w=0.82u l=1u
X7 a_2812_375# a_2724_472# VSS VSUBS nfet_06v0 ad=0.3608p pd=2.52u as=0.3608p ps=2.52u w=0.82u l=1u
X8 VDD a_3260_375# a_3172_472# VNW pfet_06v0 ad=0.5368p pd=3.32u as=0.5368p ps=3.32u w=1.22u l=1u
X9 a_2364_375# a_2276_472# VSS VSUBS nfet_06v0 ad=0.3608p pd=2.52u as=0.3608p ps=2.52u w=0.82u l=1u
X10 VDD a_2812_375# a_2724_472# VNW pfet_06v0 ad=0.5368p pd=3.32u as=0.5368p ps=3.32u w=1.22u l=1u
X11 a_3260_375# a_3172_472# VSS VSUBS nfet_06v0 ad=0.3608p pd=2.52u as=0.3608p ps=2.52u w=0.82u l=1u
X12 VDD a_1020_375# a_932_472# VNW pfet_06v0 ad=0.5368p pd=3.32u as=0.5368p ps=3.32u w=1.22u l=1u
X13 VDD a_1468_375# a_1380_472# VNW pfet_06v0 ad=0.5368p pd=3.32u as=0.5368p ps=3.32u w=1.22u l=1u
X14 VDD a_124_375# a_36_472# VNW pfet_06v0 ad=0.5368p pd=3.32u as=0.5368p ps=3.32u w=1.22u l=1u
X15 a_1020_375# a_932_472# VSS VSUBS nfet_06v0 ad=0.3608p pd=2.52u as=0.3608p ps=2.52u w=0.82u l=1u
C0 a_2812_375# VNW 0.181468f
C1 a_1020_375# VSS 0.131736f
C2 a_1828_472# VSS 0.142721f
C3 a_2276_472# VDD 0.179463f
C4 a_1916_375# VSS 0.131736f
C5 a_3260_375# VDD 0.129266f
C6 a_3172_472# VSS 0.139489f
C7 VDD a_2724_472# 0.179463f
C8 a_2812_375# VSS 0.131736f
C9 VDD a_572_375# 0.129962f
C10 a_1020_375# VDD 0.129962f
C11 a_36_472# a_124_375# 0.285629f
C12 VDD VNW 0.425768f
C13 a_1828_472# VDD 0.179463f
C14 a_2364_375# a_2276_472# 0.285629f
C15 a_124_375# VNW 0.180172f
C16 a_1916_375# VDD 0.129962f
C17 VDD a_3172_472# 0.179463f
C18 a_1468_375# VNW 0.181468f
C19 VDD a_2812_375# 0.129962f
C20 a_2364_375# VNW 0.181468f
C21 a_124_375# VSS 0.131736f
C22 a_484_472# a_572_375# 0.285629f
C23 a_1468_375# VSS 0.131736f
C24 a_1380_472# VSS 0.142721f
C25 a_1020_375# a_932_472# 0.285629f
C26 a_2364_375# VSS 0.131736f
C27 VDD a_124_375# 0.12673f
C28 a_3260_375# VNW 0.18122f
C29 a_484_472# VSS 0.142721f
C30 a_1468_375# VDD 0.129962f
C31 VDD a_1380_472# 0.179463f
C32 a_3260_375# a_3172_472# 0.285629f
C33 a_932_472# VSS 0.142721f
C34 a_572_375# VNW 0.181468f
C35 a_2364_375# VDD 0.129962f
C36 a_1020_375# VNW 0.181468f
C37 a_2276_472# VSS 0.142721f
C38 a_1916_375# VNW 0.181468f
C39 a_1916_375# a_1828_472# 0.285629f
C40 a_1468_375# a_1380_472# 0.285629f
C41 VDD a_484_472# 0.179463f
C42 a_2812_375# a_2724_472# 0.285629f
C43 a_2724_472# VSS 0.142721f
C44 a_36_472# VSS 0.142026f
C45 a_572_375# VSS 0.131736f
C46 VDD a_932_472# 0.179463f
C47 VSS VSUBS 1.20585f
C48 VDD VSUBS 0.907304f
C49 VNW VSUBS 5.83682f
C50 a_3172_472# VSUBS 0.345058f
C51 a_2724_472# VSUBS 0.33241f
C52 a_2276_472# VSUBS 0.33241f
C53 a_1828_472# VSUBS 0.33241f
C54 a_1380_472# VSUBS 0.33241f
C55 a_932_472# VSUBS 0.33241f
C56 a_484_472# VSUBS 0.33241f
C57 a_36_472# VSUBS 0.404746f
C58 a_3260_375# VSUBS 0.233093f
C59 a_2812_375# VSUBS 0.17167f
C60 a_2364_375# VSUBS 0.17167f
C61 a_1916_375# VSUBS 0.17167f
C62 a_1468_375# VSUBS 0.17167f
C63 a_1020_375# VSUBS 0.17167f
C64 a_572_375# VSUBS 0.17167f
C65 a_124_375# VSUBS 0.185915f
.ends

.subckt gf180mcu_fd_sc_mcu7t5v0__antenna VSS I VDD VNW VPW VSUBS
D0 VSUBS I diode_nd2ps_06v0 pj=1.86u area=0.2052p
D1 I VNW diode_pd2nw_06v0 pj=1.86u area=0.2052p
C0 VSS VSUBS 0.12617f
C1 I VSUBS 0.139667f
C2 VNW VSUBS 0.615384f
.ends

.subckt gf180mcu_fd_sc_mcu7t5v0__fillcap_4 VDD VSS VNW VPW a_36_472# VSUBS
X0 a_124_375# a_36_472# VSS VSUBS nfet_06v0 ad=0.3608p pd=2.52u as=0.3608p ps=2.52u w=0.82u l=1u
X1 VDD a_124_375# a_36_472# VNW pfet_06v0 ad=0.5368p pd=3.32u as=0.5368p ps=3.32u w=1.22u l=1u
C0 a_36_472# VSS 0.150876f
C1 VDD a_124_375# 0.126034f
C2 a_124_375# VNW 0.179924f
C3 a_36_472# a_124_375# 0.285629f
C4 VSS VSUBS 0.218985f
C5 VDD VSUBS 0.182777f
C6 VNW VSUBS 0.96348f
C7 a_36_472# VSUBS 0.417394f
C8 a_124_375# VSUBS 0.246306f
.ends

.subckt gf180mcu_fd_sc_mcu7t5v0__fillcap_8 VDD VSS VNW VPW a_36_472# a_572_375# VSUBS
X0 VDD a_572_375# a_484_472# VNW pfet_06v0 ad=0.5368p pd=3.32u as=0.5368p ps=3.32u w=1.22u l=1u
X1 a_572_375# a_484_472# VSS VSUBS nfet_06v0 ad=0.3608p pd=2.52u as=0.3608p ps=2.52u w=0.82u l=1u
X2 a_124_375# a_36_472# VSS VSUBS nfet_06v0 ad=0.3608p pd=2.52u as=0.3608p ps=2.52u w=0.82u l=1u
X3 VDD a_124_375# a_36_472# VNW pfet_06v0 ad=0.5368p pd=3.32u as=0.5368p ps=3.32u w=1.22u l=1u
C0 a_572_375# VNW 0.18122f
C1 VSS a_484_472# 0.148682f
C2 VDD a_124_375# 0.12673f
C3 a_484_472# a_572_375# 0.285629f
C4 a_572_375# VDD 0.129266f
C5 VDD VNW 0.11314f
C6 a_484_472# VDD 0.179463f
C7 a_124_375# a_36_472# 0.285629f
C8 VSS a_124_375# 0.136476f
C9 VSS a_36_472# 0.151218f
C10 a_124_375# VNW 0.180172f
C11 VSS VSUBS 0.360066f
C12 VDD VSUBS 0.286281f
C13 VNW VSUBS 1.65967f
C14 a_484_472# VSUBS 0.345058f
C15 a_36_472# VSUBS 0.404746f
C16 a_572_375# VSUBS 0.232991f
C17 a_124_375# VSUBS 0.185089f
.ends

.subckt gf180mcu_fd_sc_mcu7t5v0__inv_1 VSS ZN I VDD VNW VPW VSUBS
X0 ZN I VSS VSUBS nfet_06v0 ad=0.3608p pd=2.52u as=0.3608p ps=2.52u w=0.82u l=0.6u
X1 ZN I VDD VNW pfet_06v0 ad=0.5368p pd=3.32u as=0.5368p ps=3.32u w=1.22u l=0.5u
C0 I ZN 0.262199f
C1 ZN VSS 0.115297f
C2 VNW I 0.137757f
C3 ZN VDD 0.137375f
C4 VSS VSUBS 0.2316f
C5 ZN VSUBS 0.113404f
C6 VDD VSUBS 0.181139f
C7 I VSUBS 0.341982f
C8 VNW VSUBS 0.96348f
.ends

.subckt gf180mcu_fd_sc_mcu7t5v0__clkinv_1 VDD VSS I ZN VNW VPW VSUBS
X0 ZN I VSS VSUBS nfet_06v0 ad=0.2112p pd=1.84u as=0.2112p ps=1.84u w=0.48u l=0.6u
X1 ZN I VDD VNW pfet_06v0 ad=0.5368p pd=3.32u as=0.5368p ps=3.32u w=1.22u l=0.5u
C0 I ZN 0.47009f
C1 VNW I 0.135368f
C2 I VDD 0.157124f
C3 VSS VSUBS 0.242183f
C4 VDD VSUBS 0.182097f
C5 I VSUBS 0.355642f
C6 VNW VSUBS 0.96348f
.ends

.subckt gf180mcu_fd_sc_mcu7t5v0__clkbuf_1 VSS Z I VDD VNW VPW a_36_113# VSUBS
X0 VDD I a_36_113# VNW pfet_06v0 ad=0.4015p pd=1.92u as=0.462p ps=2.98u w=1.05u l=0.5u
X1 Z a_36_113# VDD VNW pfet_06v0 ad=0.5368p pd=3.32u as=0.4015p ps=1.92u w=1.22u l=0.5u
X2 Z a_36_113# VSS VSUBS nfet_06v0 ad=0.2178p pd=1.87u as=0.153p ps=1.195u w=0.495u l=0.6u
X3 VSS I a_36_113# VSUBS nfet_06v0 ad=0.153p pd=1.195u as=0.1584p ps=1.6u w=0.36u l=0.6u
C0 a_36_113# I 0.476912f
C1 Z VSS 0.136942f
C2 a_36_113# VSS 0.11114f
C3 a_36_113# VNW 0.160792f
C4 VNW I 0.152645f
C5 a_36_113# Z 0.191876f
C6 a_36_113# VDD 0.278283f
C7 VSS VSUBS 0.283681f
C8 Z VSUBS 0.117185f
C9 VDD VSUBS 0.180237f
C10 I VSUBS 0.336876f
C11 VNW VSUBS 1.31158f
C12 a_36_113# VSUBS 0.418095f
.ends

.subckt gf180mcu_fd_sc_mcu7t5v0__buf_1 VSS Z I VDD VNW VPW VSUBS
X0 Z a_36_160# VSS VSUBS nfet_06v0 ad=0.3608p pd=2.52u as=0.2344p ps=1.56u w=0.82u l=0.6u
X1 Z a_36_160# VDD VNW pfet_06v0 ad=0.5368p pd=3.32u as=0.35315p ps=1.96u w=1.22u l=0.5u
X2 VDD I a_36_160# VNW pfet_06v0 ad=0.35315p pd=1.96u as=0.2486p ps=2.01u w=0.565u l=0.5u
X3 VSS I a_36_160# VSUBS nfet_06v0 ad=0.2344p pd=1.56u as=0.1584p ps=1.6u w=0.36u l=0.6u
C0 VDD Z 0.128274f
C1 VDD a_36_160# 0.2736f
C2 Z a_36_160# 0.281838f
C3 I VNW 0.2276f
C4 VNW a_36_160# 0.170864f
C5 I a_36_160# 0.545454f
C6 VSS Z 0.146199f
C7 I VSS 0.12329f
C8 VSS VSUBS 0.28275f
C9 Z VSUBS 0.10469f
C10 VDD VSUBS 0.178615f
C11 I VSUBS 0.323491f
C12 VNW VSUBS 1.31158f
C13 a_36_160# VSUBS 0.386641f
.ends

.subckt phase_inverter input_signal[0] input_signal[1] input_signal[2] input_signal[3]
+ input_signal[4] input_signal[5] input_signal[6] input_signal[7] input_signal[8]
+ input_signal[9] output_signal_minus[0] output_signal_minus[1] output_signal_minus[2]
+ output_signal_minus[3] output_signal_minus[4] output_signal_minus[5] output_signal_minus[6]
+ output_signal_minus[7] output_signal_minus[8] output_signal_minus[9] output_signal_plus[0]
+ output_signal_plus[1] output_signal_plus[2] output_signal_plus[3] output_signal_plus[4]
+ output_signal_plus[5] output_signal_plus[6] output_signal_plus[7] output_signal_plus[8]
+ output_signal_plus[9] vdd vss
XFILLER_0_1_72 vdd vss vdd FILLER_0_1_72/VPW FILLER_0_1_72/a_36_472# FILLER_0_1_72/a_1468_375#
+ vss gf180mcu_fd_sc_mcu7t5v0__fillcap_16
Xoutput20 output_signal_minus[9] net20 vdd vss vdd output20/VPW output20/a_224_472#
+ vss gf180mcu_fd_sc_mcu7t5v0__buf_8
Xoutput21 output_signal_plus[0] net21 vdd vss vdd output21/VPW output21/a_224_472#
+ vss gf180mcu_fd_sc_mcu7t5v0__buf_8
XFILLER_0_9_2 vdd vss vdd FILLER_0_9_2/VPW FILLER_0_9_2/a_36_472# vss gf180mcu_fd_sc_mcu7t5v0__fillcap_64
XFILLER_0_7_72 vdd vss vdd FILLER_0_7_72/VPW FILLER_0_7_72/a_36_472# vss gf180mcu_fd_sc_mcu7t5v0__fillcap_32
XANTENNA_input3_I vss input_signal[2] vdd vdd ANTENNA_input3_I/VPW vss gf180mcu_fd_sc_mcu7t5v0__antenna
Xoutput22 output_signal_plus[1] net22 vdd vss vdd output22/VPW output22/a_224_472#
+ vss gf180mcu_fd_sc_mcu7t5v0__buf_8
Xoutput11 output_signal_minus[0] net11 vdd vss vdd output11/VPW output11/a_224_472#
+ vss gf180mcu_fd_sc_mcu7t5v0__buf_8
XFILLER_0_12_101 vdd vss vdd FILLER_0_12_101/VPW FILLER_0_12_101/a_36_472# vss gf180mcu_fd_sc_mcu7t5v0__fillcap_4
Xoutput23 output_signal_plus[2] net23 vdd vss vdd output23/VPW output23/a_224_472#
+ vss gf180mcu_fd_sc_mcu7t5v0__buf_8
Xoutput12 output_signal_minus[1] net12 vdd vss vdd output12/VPW output12/a_224_472#
+ vss gf180mcu_fd_sc_mcu7t5v0__buf_8
XFILLER_0_13_66 vdd vss vdd FILLER_0_13_66/VPW FILLER_0_13_66/a_36_472# vss gf180mcu_fd_sc_mcu7t5v0__fillcap_4
XFILLER_0_10_12 vdd vss vdd FILLER_0_10_12/VPW FILLER_0_10_12/a_36_472# FILLER_0_10_12/a_1468_375#
+ vss gf180mcu_fd_sc_mcu7t5v0__fillcap_16
Xoutput24 output_signal_plus[3] net24 vdd vss vdd output24/VPW output24/a_224_472#
+ vss gf180mcu_fd_sc_mcu7t5v0__buf_8
XFILLER_0_8_107 vdd vss vdd FILLER_0_8_107/VPW FILLER_0_8_107/a_36_472# FILLER_0_8_107/a_572_375#
+ vss gf180mcu_fd_sc_mcu7t5v0__fillcap_8
Xoutput13 output_signal_minus[2] net13 vdd vss vdd output13/VPW output13/a_224_472#
+ vss gf180mcu_fd_sc_mcu7t5v0__buf_8
XFILLER_0_7_2 vdd vss vdd FILLER_0_7_2/VPW FILLER_0_7_2/a_36_472# vss gf180mcu_fd_sc_mcu7t5v0__fillcap_64
XANTENNA_input1_I vss input_signal[0] vdd vdd ANTENNA_input1_I/VPW vss gf180mcu_fd_sc_mcu7t5v0__antenna
XFILLER_0_1_44 vdd vss vdd FILLER_0_1_44/VPW FILLER_0_1_44/a_36_472# FILLER_0_1_44/a_1468_375#
+ vss gf180mcu_fd_sc_mcu7t5v0__fillcap_16
Xoutput25 output_signal_plus[4] net25 vdd vss vdd output25/VPW output25/a_224_472#
+ vss gf180mcu_fd_sc_mcu7t5v0__buf_8
Xoutput14 output_signal_minus[3] net14 vdd vss vdd output14/VPW output14/a_224_472#
+ vss gf180mcu_fd_sc_mcu7t5v0__buf_8
XFILLER_0_1_12 vdd vss vdd FILLER_0_1_12/VPW FILLER_0_1_12/a_36_472# vss gf180mcu_fd_sc_mcu7t5v0__fillcap_32
Xoutput26 output_signal_plus[5] net26 vdd vss vdd output26/VPW output26/a_224_472#
+ vss gf180mcu_fd_sc_mcu7t5v0__buf_8
X_09_ vss net19 net9 vdd vdd _09_/VPW vss gf180mcu_fd_sc_mcu7t5v0__inv_1
Xoutput15 output_signal_minus[4] net15 vdd vss vdd output15/VPW output15/a_224_472#
+ vss gf180mcu_fd_sc_mcu7t5v0__buf_8
XFILLER_0_4_101 vdd vss vdd FILLER_0_4_101/VPW FILLER_0_4_101/a_36_472# vss gf180mcu_fd_sc_mcu7t5v0__fillcap_4
XFILLER_0_7_66 vdd vss vdd FILLER_0_7_66/VPW FILLER_0_7_66/a_36_472# vss gf180mcu_fd_sc_mcu7t5v0__fillcap_4
XFILLER_0_10_37 vdd vss vdd FILLER_0_10_37/VPW FILLER_0_10_37/a_36_472# vss gf180mcu_fd_sc_mcu7t5v0__fillcap_64
XFILLER_0_16_36 vdd vss vdd FILLER_0_16_36/VPW FILLER_0_16_36/a_36_472# vss gf180mcu_fd_sc_mcu7t5v0__fillcap_32
X_08_ vss net18 net8 vdd vdd _08_/VPW vss gf180mcu_fd_sc_mcu7t5v0__inv_1
Xoutput27 output_signal_plus[6] net27 vdd vss vdd output27/VPW output27/a_224_472#
+ vss gf180mcu_fd_sc_mcu7t5v0__buf_8
Xoutput16 output_signal_minus[5] net16 vdd vss vdd output16/VPW output16/a_224_472#
+ vss gf180mcu_fd_sc_mcu7t5v0__buf_8
Xoutput28 output_signal_plus[7] net28 vdd vss vdd output28/VPW output28/a_224_472#
+ vss gf180mcu_fd_sc_mcu7t5v0__buf_8
X_07_ vss net17 net7 vdd vdd _07_/VPW vss gf180mcu_fd_sc_mcu7t5v0__inv_1
Xoutput17 output_signal_minus[6] net17 vdd vss vdd output17/VPW output17/a_224_472#
+ vss gf180mcu_fd_sc_mcu7t5v0__buf_8
XFILLER_0_10_28 vdd vss vdd FILLER_0_10_28/VPW FILLER_0_10_28/a_36_472# vss gf180mcu_fd_sc_mcu7t5v0__fillcap_4
XFILLER_0_12_107 vdd vss vdd FILLER_0_12_107/VPW FILLER_0_12_107/a_36_472# FILLER_0_12_107/a_1468_375#
+ vss gf180mcu_fd_sc_mcu7t5v0__fillcap_16
Xoutput29 output_signal_plus[8] net29 vdd vss vdd output29/VPW output29/a_224_472#
+ vss gf180mcu_fd_sc_mcu7t5v0__buf_8
X_06_ vdd vss net6 net16 vdd _06_/VPW vss gf180mcu_fd_sc_mcu7t5v0__clkinv_1
Xoutput18 output_signal_minus[7] net18 vdd vss vdd output18/VPW output18/a_224_472#
+ vss gf180mcu_fd_sc_mcu7t5v0__buf_8
XFILLER_0_4_37 vdd vss vdd FILLER_0_4_37/VPW FILLER_0_4_37/a_36_472# vss gf180mcu_fd_sc_mcu7t5v0__fillcap_64
XFILLER_0_11_72 vdd vss vdd FILLER_0_11_72/VPW FILLER_0_11_72/a_36_472# vss gf180mcu_fd_sc_mcu7t5v0__fillcap_64
XANTENNA__04__I vss net4 vdd vdd ANTENNA__04__I/VPW vss gf180mcu_fd_sc_mcu7t5v0__antenna
Xoutput19 output_signal_minus[8] net19 vdd vss vdd output19/VPW output19/a_224_472#
+ vss gf180mcu_fd_sc_mcu7t5v0__buf_8
X_05_ vdd vss net5 net15 vdd _05_/VPW vss gf180mcu_fd_sc_mcu7t5v0__clkinv_1
XFILLER_0_16_18 vdd vss vdd FILLER_0_16_18/VPW FILLER_0_16_18/a_36_472# FILLER_0_16_18/a_1468_375#
+ vss gf180mcu_fd_sc_mcu7t5v0__fillcap_16
XANTENNA_input8_I vss input_signal[7] vdd vdd ANTENNA_input8_I/VPW vss gf180mcu_fd_sc_mcu7t5v0__antenna
XANTENNA__15__I vss net6 vdd vdd ANTENNA__15__I/VPW vss gf180mcu_fd_sc_mcu7t5v0__antenna
X_04_ vdd vss net4 net14 vdd _04_/VPW vss gf180mcu_fd_sc_mcu7t5v0__clkinv_1
XFILLER_0_0_142 vdd vss vdd FILLER_0_0_142/VPW FILLER_0_0_142/a_36_472# FILLER_0_0_142/a_572_375#
+ vss gf180mcu_fd_sc_mcu7t5v0__fillcap_8
XFILLER_0_5_60 vdd vss vdd FILLER_0_5_60/VPW FILLER_0_5_60/a_36_472# FILLER_0_5_60/a_572_375#
+ vss gf180mcu_fd_sc_mcu7t5v0__fillcap_8
XFILLER_0_7_104 vdd vss vdd FILLER_0_7_104/VPW FILLER_0_7_104/a_36_472# FILLER_0_7_104/a_572_375#
+ vss gf180mcu_fd_sc_mcu7t5v0__fillcap_8
X_03_ vdd vss net3 net13 vdd _03_/VPW vss gf180mcu_fd_sc_mcu7t5v0__clkinv_1
Xinput1 vss net1 input_signal[0] vdd vdd input1/VPW input1/a_36_113# vss gf180mcu_fd_sc_mcu7t5v0__clkbuf_1
XFILLER_0_4_107 vdd vss vdd FILLER_0_4_107/VPW FILLER_0_4_107/a_36_472# FILLER_0_4_107/a_1468_375#
+ vss gf180mcu_fd_sc_mcu7t5v0__fillcap_16
XFILLER_0_5_72 vdd vss vdd FILLER_0_5_72/VPW FILLER_0_5_72/a_36_472# vss gf180mcu_fd_sc_mcu7t5v0__fillcap_32
Xinput2 vss net2 input_signal[1] vdd vdd input2/VPW input2/a_36_113# vss gf180mcu_fd_sc_mcu7t5v0__clkbuf_1
X_02_ vdd vss net2 net12 vdd _02_/VPW vss gf180mcu_fd_sc_mcu7t5v0__clkinv_1
X_01_ vdd vss net1 net11 vdd _01_/VPW vss gf180mcu_fd_sc_mcu7t5v0__clkinv_1
Xinput3 vss net3 input_signal[2] vdd vdd input3/VPW input3/a_36_113# vss gf180mcu_fd_sc_mcu7t5v0__clkbuf_1
XANTENNA_input6_I vss input_signal[5] vdd vdd ANTENNA_input6_I/VPW vss gf180mcu_fd_sc_mcu7t5v0__antenna
XFILLER_0_11_66 vdd vss vdd FILLER_0_11_66/VPW FILLER_0_11_66/a_36_472# vss gf180mcu_fd_sc_mcu7t5v0__fillcap_4
Xinput4 vss net4 input_signal[3] vdd vdd input4/VPW input4/a_36_113# vss gf180mcu_fd_sc_mcu7t5v0__clkbuf_1
X_00_ vss net20 net10 vdd vdd _00_/VPW vss gf180mcu_fd_sc_mcu7t5v0__inv_1
Xinput5 vss net5 input_signal[4] vdd vdd input5/VPW input5/a_36_113# vss gf180mcu_fd_sc_mcu7t5v0__clkbuf_1
XFILLER_0_11_136 vdd vss vdd FILLER_0_11_136/VPW FILLER_0_11_136/a_36_472# vss gf180mcu_fd_sc_mcu7t5v0__fillcap_4
XFILLER_0_14_12 vdd vss vdd FILLER_0_14_12/VPW FILLER_0_14_12/a_36_472# FILLER_0_14_12/a_1468_375#
+ vss gf180mcu_fd_sc_mcu7t5v0__fillcap_16
XFILLER_0_14_101 vdd vss vdd FILLER_0_14_101/VPW FILLER_0_14_101/a_36_472# vss gf180mcu_fd_sc_mcu7t5v0__fillcap_4
Xinput6 vss net6 input_signal[5] vdd vdd input6/VPW input6/a_36_113# vss gf180mcu_fd_sc_mcu7t5v0__clkbuf_1
XFILLER_0_0_104 vdd vss vdd FILLER_0_0_104/VPW FILLER_0_0_104/a_36_472# vss gf180mcu_fd_sc_mcu7t5v0__fillcap_4
XANTENNA_input4_I vss input_signal[3] vdd vdd ANTENNA_input4_I/VPW vss gf180mcu_fd_sc_mcu7t5v0__antenna
Xinput7 vss net7 input_signal[6] vdd vdd input7/VPW input7/a_36_113# vss gf180mcu_fd_sc_mcu7t5v0__clkbuf_1
XFILLER_0_5_44 vdd vss vdd FILLER_0_5_44/VPW FILLER_0_5_44/a_36_472# FILLER_0_5_44/a_1468_375#
+ vss gf180mcu_fd_sc_mcu7t5v0__fillcap_16
Xinput10 vss net10 input_signal[9] vdd vdd input10/VPW input10/a_36_113# vss gf180mcu_fd_sc_mcu7t5v0__clkbuf_1
XFILLER_0_5_12 vdd vss vdd FILLER_0_5_12/VPW FILLER_0_5_12/a_36_472# vss gf180mcu_fd_sc_mcu7t5v0__fillcap_32
Xinput8 vss net8 input_signal[7] vdd vdd input8/VPW input8/a_36_113# vss gf180mcu_fd_sc_mcu7t5v0__clkbuf_1
XFILLER_0_14_37 vdd vss vdd FILLER_0_14_37/VPW FILLER_0_14_37/a_36_472# vss gf180mcu_fd_sc_mcu7t5v0__fillcap_64
XFILLER_0_8_12 vdd vss vdd FILLER_0_8_12/VPW FILLER_0_8_12/a_36_472# FILLER_0_8_12/a_1468_375#
+ vss gf180mcu_fd_sc_mcu7t5v0__fillcap_16
Xinput9 vss net9 input_signal[8] vdd vdd input9/VPW input9/a_36_113# vss gf180mcu_fd_sc_mcu7t5v0__clkbuf_1
XFILLER_0_14_115 vdd vss vdd FILLER_0_14_115/VPW FILLER_0_14_115/a_36_472# vss gf180mcu_fd_sc_mcu7t5v0__fillcap_4
XFILLER_0_6_101 vdd vss vdd FILLER_0_6_101/VPW FILLER_0_6_101/a_36_472# vss gf180mcu_fd_sc_mcu7t5v0__fillcap_4
XFILLER_0_3_104 vdd vss vdd FILLER_0_3_104/VPW FILLER_0_3_104/a_36_472# FILLER_0_3_104/a_572_375#
+ vss gf180mcu_fd_sc_mcu7t5v0__fillcap_8
XANTENNA_input10_I vss input_signal[9] vdd vdd ANTENNA_input10_I/VPW vss gf180mcu_fd_sc_mcu7t5v0__antenna
XANTENNA_input2_I vss input_signal[1] vdd vdd ANTENNA_input2_I/VPW vss gf180mcu_fd_sc_mcu7t5v0__antenna
XFILLER_0_2_37 vdd vss vdd FILLER_0_2_37/VPW FILLER_0_2_37/a_36_472# vss gf180mcu_fd_sc_mcu7t5v0__fillcap_64
XFILLER_0_14_28 vdd vss vdd FILLER_0_14_28/VPW FILLER_0_14_28/a_36_472# vss gf180mcu_fd_sc_mcu7t5v0__fillcap_4