* NGSPICE file created from saradc.ext - technology: gf180mcuD

.subckt XM1_bs G D a_n302_n324# a_n302_252# S
X0 D G S a_n302_n324# nfet_06v0 ad=0.44p pd=2.88u as=0.44p ps=2.88u w=1u l=0.7u
C0 G a_n302_n324# 0.361695f
.ends

.subckt XM4_bs G D w_n319_n356# S VSUBS
X0 D G S w_n319_n356# pfet_06v0 ad=0.44p pd=2.88u as=0.44p ps=2.88u w=1u l=0.55u
C0 w_n319_n356# G 0.186402f
C1 G VSUBS 0.124686f
C2 w_n319_n356# VSUBS 1.47408f
.ends

.subckt XMs1_bs G D a_n302_n324# S
X0 D G S a_n302_n324# nfet_06v0 ad=0.44p pd=2.88u as=0.44p ps=2.88u w=1u l=0.7u
C0 G a_n302_n324# 0.365275f
.ends

.subckt bs_cap I1_1_1_R0_BOT I1_1_1_R0_TOP VSUBS
*X0 I1_1_1_R0_TOP I1_1_1_R0_BOT cap_mim_2f0fF c_width=12.339999u c_length=12.339999u
CP I1_1_1_R0_TOP I1_1_1_R0_BOT 4.86p
C0 I1_1_1_R0_BOT I1_1_1_R0_TOP 0.730455f
C1 I1_1_1_R0_TOP VSUBS 2.59113f
C2 I1_1_1_R0_BOT VSUBS 1.76085f
.ends

.subckt XM3_bs G D w_n319_n356# S VSUBS
X0 D G S w_n319_n356# pfet_06v0 ad=0.44p pd=2.88u as=0.44p ps=2.88u w=1u l=0.55u
C0 w_n319_n356# G 0.186402f
C1 G VSUBS 0.124686f
C2 w_n319_n356# VSUBS 1.47408f
.ends

.subckt XM1_bs_inv G D a_n302_n324# S
X0 D G S a_n302_n324# nfet_06v0 ad=0.44p pd=2.88u as=0.44p ps=2.88u w=1u l=0.7u
C0 G a_n302_n324# 0.365365f
.ends

.subckt XM2_bs_inv G D w_n319_n356# S VSUBS
X0 D G S w_n319_n356# pfet_06v0 ad=0.44p pd=2.88u as=0.44p ps=2.88u w=1u l=0.55u
C0 w_n319_n356# G 0.186609f
C1 G VSUBS 0.124686f
C2 w_n319_n356# VSUBS 1.48751f
.ends

.subckt bs_inv inv_out vdd inv_in vss
XXM1_bs_inv_0 inv_in inv_out vss vss XM1_bs_inv
XXM2_bs_inv_0 inv_in inv_out vdd vdd vss XM2_bs_inv
C0 vdd 0 1.650725f
C1 inv_out 0 0.392313f
C2 vss 0 0.277512f
C3 inv_in 0 0.605506f
.ends

.subckt XMs_bs G D a_n302_n324# S
X0 D G S a_n302_n324# nfet_06v0 ad=0.44p pd=2.88u as=0.44p ps=2.88u w=1u l=0.7u
C0 G a_n302_n324# 0.361785f
.ends

.subckt XM2_bs G D a_n302_n324# a_n302_252# S
X0 D G S a_n302_n324# nfet_06v0 ad=0.44p pd=2.88u as=0.44p ps=2.88u w=1u l=0.7u
C0 G a_n302_n324# 0.361695f
.ends

.subckt XMs2_bs G D a_n302_n324# a_n302_252# S
X0 D G S a_n302_n324# nfet_06v0 ad=0.44p pd=2.88u as=0.44p ps=2.88u w=1u l=0.7u
C0 G a_n302_n324# 0.365186f
.ends

.subckt bootstrapped_sw en enb bs_in bs_out vg vs vbsl vbsh vdd vss
XXM1_bs_0 vg vbsl vss vss bs_in XM1_bs
XXM4_bs_0 vg vdd vbsh vbsh vss XM4_bs
XXMs1_bs_0 vdd vs vss vg XMs1_bs
Xbs_cap_0 vbsl vbsh vss bs_cap
Xbs_cap_1 vbsl vbsh vss bs_cap
XXM3_bs_0 enb vg vbsh vbsh vss XM3_bs
Xbs_cap_2 vbsl vbsh vss bs_cap
Xbs_cap_4 vbsl vbsh vss bs_cap
Xbs_cap_3 vbsl vbsh vss bs_cap
Xbs_inv_0 enb vdd en vss bs_inv
XXMs_bs_0 vg bs_out vss bs_in XMs_bs
XXM2_bs_0 enb vbsl vss vss vss XM2_bs
XXMs2_bs_0 enb vss vss vss vs XMs2_bs
C0 vbsl bs_in 0.256003f
C1 vg enb 0.583075f
C2 vbsh vdd 0.205818f
C3 vdd enb 0.426791f
C4 vg vdd 0.500479f
C5 vbsl vbsh 0.870275f
C6 bs_out vbsh 0.119559f
C7 vbsh vg 0.283904f
C8 enb vss 1.703464f
C9 bs_out vss 0.895635f
C10 bs_in vss 0.389944f
C11 vg vss 1.576155f
C12 vdd vss 3.558326f
C13 en vss 0.896531f
C14 vbsh vss 14.292329f
C15 vbsl vss 8.158694f
.ends

.subckt inv VSS ZN I VDD VPW VNW VSUBS
X0 VDD I ZN VNW pfet_06v0 ad=1.2078p pd=4.42u as=0.4575p ps=1.97u w=1.22u l=0.5u
X1 ZN I VSS VSUBS nfet_06v0 ad=0.2255p pd=1.37u as=0.5084p ps=2.88u w=0.82u l=0.6u
X2 VSS I ZN VSUBS nfet_06v0 ad=0.8118p pd=3.62u as=0.2255p ps=1.37u w=0.82u l=0.6u
X3 ZN I VDD VNW pfet_06v0 ad=0.4575p pd=1.97u as=0.7564p ps=3.68u w=1.22u l=0.5u
C0 VNW I 0.285482f
C1 VDD ZN 0.271625f
C2 VSS ZN 0.180794f
C3 I ZN 0.58604f
C4 VSS VSUBS 0.296769f
C5 VDD VSUBS 0.238483f
C6 I VSUBS 0.610668f
C7 VNW VSUBS 1.31158f
.ends

.subckt inv_renketu inv_out_dum inv_in_dum inv_out[1] inv_out[2] inv_out[3] inv_out[4]
+ inv_out[5] inv_out[6] inv_out[7] inv_out[9] inv_in[1] inv_in[2] inv_in[3] inv_in[4]
+ inv_in[5] inv_in[6] inv_in[7] inv_in[8] inv_in[9] inv_out[0] inv_in[0] inv_out[8]
+ vdd vss
Xinv_10 vss inv_out[9] inv_in[9] vdd inv_10/VPW vdd vss inv
Xinv_0 vss inv_out_dum inv_in_dum vdd inv_0/VPW vdd vss inv
Xinv_1 vss inv_out[2] inv_in[2] vdd inv_1/VPW vdd vss inv
Xinv_2 vss inv_out[0] inv_in[0] vdd inv_2/VPW vdd vss inv
Xinv_3 vss inv_out[1] inv_in[1] vdd inv_3/VPW vdd vss inv
Xinv_4 vss inv_out[3] inv_in[3] vdd inv_4/VPW vdd vss inv
Xinv_5 vss inv_out[4] inv_in[4] vdd inv_5/VPW vdd vss inv
Xinv_6 vss inv_out[5] inv_in[5] vdd inv_6/VPW vdd vss inv
Xinv_7 vss inv_out[6] inv_in[6] vdd inv_7/VPW vdd vss inv
Xinv_8 vss inv_out[7] inv_in[7] vdd inv_8/VPW vdd vss inv
Xinv_9 vss inv_out[8] inv_in[8] vdd inv_9/VPW vdd vss inv
C0 vdd inv_out[1] 0.159176f
C1 inv_in[3] vss 0.166388f
C2 vdd inv_out[8] 0.159176f
C3 inv_in[0] vss 0.164788f
C4 vss inv_in[7] 0.166388f
C5 vdd inv_out[4] 0.159176f
C6 inv_in[2] vss 0.166388f
C7 inv_in[5] vss 0.166388f
C8 vdd inv_out[7] 0.159176f
C9 inv_in[1] vss 0.166388f
C10 vss inv_in[8] 0.166388f
C11 inv_in[4] vss 0.166388f
C12 vdd inv_out[2] 0.159176f
C13 vdd inv_out[9] 0.159176f
C14 inv_in[6] vss 0.166388f
C15 vdd inv_out[5] 0.159176f
C16 vss inv_in[9] 0.166388f
C17 vdd inv_out[3] 0.159176f
C18 inv_in_dum vss 0.170492f
C19 vdd inv_out_dum 0.184001f
C20 vdd inv_out[6] 0.159176f
C21 vdd inv_out[0] 0.174722f
C22 inv_out[8] 0 0.131999f
C23 inv_in[8] 0 0.64919f
C24 inv_out[7] 0 0.131999f
C25 inv_in[7] 0 0.64919f
C26 inv_out[6] 0 0.131999f
C27 inv_in[6] 0 0.64919f
C28 inv_out[5] 0 0.131999f
C29 inv_in[5] 0 0.64919f
C30 inv_out[4] 0 0.131999f
C31 inv_in[4] 0 0.64919f
C32 inv_out[3] 0 0.131999f
C33 inv_in[3] 0 0.64919f
C34 inv_out[1] 0 0.131999f
C35 inv_in[1] 0 0.64919f
C36 vss 0 3.02573f
C37 inv_out[0] 0 0.206166f
C38 vdd 0 16.013325f
C39 inv_in[0] 0 0.750024f
C40 inv_out[2] 0 0.131999f
C41 inv_in[2] 0 0.64919f
C42 inv_out_dum 0 0.209411f
C43 inv_in_dum 0 0.731246f
C44 inv_out[9] 0 0.131999f
C45 inv_in[9] 0 0.64919f
.ends

.subckt dac sample dac_out dum ctl1 ctl3 ctl4 ctl5 ctl6 ctl7 ctl8 ctl9 ctl10 ctl2
+ dac_in vdd vss
Xbootstrapped_sw_0 sample bootstrapped_sw_0/enb dac_in dac_out bootstrapped_sw_0/vg
+ bootstrapped_sw_0/vs bootstrapped_sw_0/vbsl bootstrapped_sw_0/vbsh vdd vss bootstrapped_sw
Xinv_renketu_0 carray_0/ndum dum carray_0/n1 carray_0/n2 carray_0/n3 carray_0/n4 carray_0/n5
+ carray_0/n6 carray_0/n7 carray_0/n9 ctl1 ctl2 ctl3 ctl4 ctl5 ctl6 ctl7 ctl8 ctl9
+ carray_0/n0 ctl10 carray_0/n8 vdd vss inv_renketu
C0 carray_0/n1 carray_0/n6 0.142211f
C1 bootstrapped_sw_0/vbsl dac_out 0.207261f
C2 carray_0/n3 carray_0/n9 1.911224f
C3 carray_0/n2 carray_0/n5 0.208112f
C4 carray_0/n1 carray_0/ndum 8.498201f
C5 carray_0/n1 carray_0/n5 0.142354f
C6 carray_0/n8 carray_0/n4 2.84323f
C7 carray_0/n7 dac_out 0.210031p
C8 carray_0/n6 dac_out 0.105055p
C9 ctl2 ctl1 0.104537f
C10 ctl7 ctl6 0.104537f
C11 dac_out carray_0/ndum 1.640173f
C12 carray_0/n3 carray_0/n7 0.891504f
C13 carray_0/n3 carray_0/n6 0.336612f
C14 dac_out carray_0/n5 52.565514f
C15 carray_0/n7 carray_0/n9 29.516087f
C16 carray_0/n9 carray_0/n6 14.716789f
C17 carray_0/n0 carray_0/n1 8.476914f
C18 carray_0/n2 carray_0/n4 0.213209f
C19 carray_0/n1 carray_0/n4 0.142475f
C20 carray_0/n3 carray_0/n5 0.346757f
C21 carray_0/n9 carray_0/ndum 0.127951f
C22 vdd sample 0.522081f
C23 carray_0/n9 carray_0/n5 7.399346f
C24 carray_0/n2 carray_0/n8 0.770227f
C25 bootstrapped_sw_0/vbsh dac_out 0.280658f
C26 carray_0/n0 dac_out 1.750611f
C27 carray_0/n8 carray_0/n1 0.28587f
C28 carray_0/n7 carray_0/n6 34.662605f
C29 dac_out carray_0/n4 26.32268f
C30 ctl8 ctl7 0.104537f
C31 ctl2 ctl3 0.104537f
C32 carray_0/n0 carray_0/n9 0.521489f
C33 carray_0/n7 carray_0/n5 3.36878f
C34 carray_0/n3 carray_0/n4 26.229403f
C35 carray_0/n8 dac_out 0.420151p
C36 carray_0/n6 carray_0/n5 28.925901f
C37 carray_0/n9 carray_0/n4 3.740573f
C38 carray_0/n2 carray_0/n1 16.941952f
C39 ctl10 ctl9 0.104537f
C40 carray_0/n3 carray_0/n8 1.46111f
C41 carray_0/n9 carray_0/n8 87.43918f
C42 ctl5 ctl6 0.104537f
C43 carray_0/n2 dac_out 6.640605f
C44 carray_0/n1 dac_out 3.367623f
C45 carray_0/n7 carray_0/n4 1.70387f
C46 carray_0/n6 carray_0/n4 0.614078f
C47 ctl4 ctl3 0.104537f
C48 carray_0/n3 carray_0/n2 23.177217f
C49 carray_0/n9 carray_0/n2 0.996681f
C50 ctl8 ctl9 0.104537f
C51 carray_0/n3 carray_0/n1 0.145048f
C52 carray_0/n7 carray_0/n8 50.51461f
C53 carray_0/n5 carray_0/n4 27.828503f
C54 carray_0/n8 carray_0/n6 11.2161f
C55 carray_0/n9 carray_0/n1 0.350042f
C56 ctl1 dum 0.104537f
C57 carray_0/n8 carray_0/n5 5.60732f
C58 carray_0/n3 dac_out 13.201303f
C59 carray_0/n9 dac_out 0.846161p
C60 carray_0/n7 carray_0/n2 0.485355f
C61 carray_0/n2 carray_0/n6 0.20799f
C62 ctl4 ctl5 0.104537f
C63 carray_0/n7 carray_0/n1 0.212822f
C64 ctl8 vss 0.916847f
C65 ctl7 vss 0.916847f
C66 ctl6 vss 0.916847f
C67 ctl5 vss 0.916847f
C68 ctl4 vss 0.916847f
C69 ctl3 vss 0.916847f
C70 ctl1 vss 0.916847f
C71 vdd vss 24.314367f
C72 ctl10 vss 1.146163f
C73 ctl2 vss 0.916847f
C74 dum vss 1.125553f
C75 ctl9 vss 0.916847f
C76 carray_0/n4 vss 39.983223f
C77 carray_0/ndum vss 14.881686f
C78 carray_0/n5 vss 48.00648f
C79 carray_0/n9 vss 14.963586f
C80 dac_out vss -0.681993p
C81 carray_0/n8 vss 40.580837f
C82 carray_0/n7 vss 56.915478f
C83 carray_0/n6 vss 53.64827f
C84 carray_0/n0 vss 17.632519f
C85 carray_0/n2 vss 30.783176f
C86 carray_0/n1 vss 17.795374f
C87 carray_0/n3 vss 34.265587f
C88 bootstrapped_sw_0/enb vss 1.502816f
C89 dac_in vss 0.376878f
C90 bootstrapped_sw_0/vg vss 1.498165f
C91 sample vss 20.808456f
C92 bootstrapped_sw_0/vbsh vss 14.27723f
C93 bootstrapped_sw_0/vbsl vss 7.956583f
.ends

.subckt XM2_x4_latch G D w_n319_n356# S VSUBS
X0 D G S w_n319_n356# pfet_06v0 ad=0.44p pd=2.88u as=0.44p ps=2.88u w=1u l=0.55u
C0 w_n319_n356# G 0.186402f
C1 G VSUBS 0.124686f
C2 w_n319_n356# VSUBS 1.48703f
.ends

.subckt XM1_x4_latch G D a_n302_n324# S
X0 D G S a_n302_n324# nfet_06v0 ad=0.44p pd=2.88u as=0.44p ps=2.88u w=1u l=0.7u
C0 G a_n302_n324# 0.365275f
.ends

.subckt x4_latch inv_out inv_in vdd vss
XXM2_x4_latch_0 inv_in inv_out vdd vdd vss XM2_x4_latch
XXM1_x4_latch_0 inv_in inv_out vss vss XM1_x4_latch
C0 vdd 0 1.6624f
C1 inv_out 0 0.399533f
C2 vss 0 0.289424f
C3 inv_in 0 0.606521f
.ends

.subckt XM2_x3_latch G D w_n319_n356# S VSUBS
X0 S G D w_n319_n356# pfet_06v0 ad=0.44p pd=2.88u as=0.44p ps=2.88u w=1u l=0.55u
C0 w_n319_n356# G 0.186402f
C1 G VSUBS 0.124686f
C2 w_n319_n356# VSUBS 1.48703f
.ends

.subckt XM1_x3_latch G D a_n319_n324# S
X0 S G D a_n319_n324# nfet_06v0 ad=0.44p pd=2.88u as=0.44p ps=2.88u w=1u l=0.7u
C0 G a_n319_n324# 0.365275f
.ends

.subckt x3_latch inv_out vdd inv_in vss
XXM2_x3_latch_0 inv_in inv_out vdd vdd vss XM2_x3_latch
XXM1_x3_latch_0 inv_in inv_out vss vss XM1_x3_latch
C0 vdd 0 1.658401f
C1 vss 0 0.284019f
C2 inv_out 0 0.399533f
C3 inv_in 0 0.606521f
.ends

.subckt XM4_latch G D a_n319_n324# S a_n319_252#
X0 D G S a_n319_n324# nfet_06v0 ad=0.44p pd=2.88u as=0.44p ps=2.88u w=1u l=0.7u
C0 G a_n319_n324# 0.365186f
.ends

.subckt XM2_x2_latch G D w_n319_n356# S VSUBS
X0 D G S w_n319_n356# pfet_06v0 ad=0.44p pd=2.88u as=0.44p ps=2.88u w=1u l=0.55u
C0 G w_n319_n356# 0.186194f
C1 G VSUBS 0.124686f
C2 w_n319_n356# VSUBS 1.48655f
.ends

.subckt XM1_x2_latch G a_n320_n324# D a_n318_252# S
X0 D G S a_n320_n324# nfet_06v0 ad=0.44p pd=2.88u as=0.44p ps=2.88u w=1u l=0.7u
C0 G a_n320_n324# 0.365186f
.ends

.subckt x2_latch inv_out vdd inv_in XM1_x2_latch_0/a_n318_252# vss
XXM2_x2_latch_0 inv_in inv_out vdd vdd vss XM2_x2_latch
XXM1_x2_latch_0 inv_in vss inv_out XM1_x2_latch_0/a_n318_252# vss XM1_x2_latch
C0 vdd 0 1.678276f
C1 inv_out 0 0.40245f
C2 vss 0 0.292283f
C3 inv_in 0 0.607553f
.ends

.subckt XM3_latch G D a_n319_n324# S a_n319_252#
X0 D G S a_n319_n324# nfet_06v0 ad=0.44p pd=2.88u as=0.44p ps=2.88u w=1u l=0.7u
C0 G a_n319_n324# 0.365186f
.ends

.subckt XM2_x1_latch G D w_n319_n356# S VSUBS
X0 D G S w_n319_n356# pfet_06v0 ad=0.44p pd=2.88u as=0.44p ps=2.88u w=1u l=0.55u
C0 w_n319_n356# G 0.186194f
C1 G VSUBS 0.124686f
C2 w_n319_n356# VSUBS 1.48655f
.ends

.subckt XM1_x1_latch G D a_n318_n324# S
X0 D G S a_n318_n324# nfet_06v0 ad=0.44p pd=2.88u as=0.44p ps=2.88u w=1u l=0.7u
C0 G a_n318_n324# 0.365186f
.ends

.subckt x1_latch inv_out inv_in vdd vss
XXM2_x1_latch_0 inv_in inv_out vdd vdd vss XM2_x1_latch
XXM1_x1_latch_0 inv_in inv_out vss vss XM1_x1_latch
C0 vdd 0 1.676557f
C1 inv_out 0 0.40245f
C2 vss 0 0.30318f
C3 inv_in 0 0.607553f
.ends

.subckt latch Q Qn R S vdd vss
Xx4_latch_0 XM3_latch_0/G S vdd vss x4_latch
Xx3_latch_0 XM4_latch_0/G vdd R vss x3_latch
XXM4_latch_0 XM4_latch_0/G Q vss vss vss XM4_latch
Xx2_latch_0 Qn vdd Q vss vss x2_latch
XXM3_latch_0 XM3_latch_0/G Qn vss vss vss XM3_latch
Xx1_latch_0 Q Qn vdd vss x1_latch
C0 Qn vdd 0.134494f
C1 XM3_latch_0/G vdd 0.186837f
C2 XM4_latch_0/G vdd 0.186732f
C3 Q vdd 0.457389f
C4 Qn vss 0.167238f
C5 XM3_latch_0/G vss 0.103577f
C6 Q Qn 0.886677f
C7 vss XM4_latch_0/G 0.103577f
C8 Q vss 0.14016f
C9 vdd 0 9.513767f
C10 Qn 0 0.887927f
C11 vss 0 1.296609f
C12 Q 0 0.846126f
C13 XM4_latch_0/G 0 0.717123f
C14 R 0 0.592286f
C15 XM3_latch_0/G 0 0.717027f
C16 S 0 0.592286f
.ends

.subckt XM1_inv2 G D a_n319_n324# S
X0 D G S a_n319_n324# nfet_06v0 ad=0.44p pd=2.88u as=0.44p ps=2.88u w=1u l=0.7u
C0 G a_n319_n324# 0.365275f
.ends

.subckt XM2_inv2 G D w_n319_n356# S VSUBS
X0 D G S w_n319_n356# pfet_06v0 ad=0.44p pd=2.88u as=0.44p ps=2.88u w=1u l=0.55u
C0 w_n319_n356# G 0.186402f
C1 G VSUBS 0.124686f
C2 w_n319_n356# VSUBS 1.48703f
.ends

.subckt inv2 inv_out vdd inv_in vss
XXM1_inv2_0 inv_in inv_out vss vss XM1_inv2
XXM2_inv2_0 inv_in inv_out vdd vdd vss XM2_inv2
C0 vdd 0 1.664833f
C1 inv_out 0 0.395231f
C2 vss 0 0.291189f
C3 inv_in 0 0.606537f
.ends

.subckt XM1_inv1 G D a_n302_n324# S
X0 D G S a_n302_n324# nfet_06v0 ad=0.44p pd=2.88u as=0.44p ps=2.88u w=1u l=0.7u
C0 G a_n302_n324# 0.365275f
.ends

.subckt XM2_inv1 G D w_n319_n356# S VSUBS
X0 D G S w_n319_n356# pfet_06v0 ad=0.44p pd=2.88u as=0.44p ps=2.88u w=1u l=0.55u
C0 w_n319_n356# G 0.186402f
C1 G VSUBS 0.124686f
C2 w_n319_n356# VSUBS 1.48703f
.ends

.subckt inv1 inv_out vdd inv_in vss
XXM1_inv1_0 inv_in inv_out vss vss XM1_inv1
XXM2_inv1_0 inv_in inv_out vdd vdd vss XM2_inv1
C0 vdd 0 1.6624f
C1 inv_out 0 0.399522f
C2 vss 0 0.289424f
C3 inv_in 0 0.606504f
.ends

.subckt buffer vdd buf_in buf_out vss
Xinv2_0 buf_out vdd inv2_0/inv_in vss inv2
Xinv1_0 inv2_0/inv_in vdd buf_in vss inv1
C0 vdd inv2_0/inv_in 0.146942f
C1 inv2_0/inv_in buf_in 0.110773f
C2 buf_out inv2_0/inv_in 0.153015f
C3 buf_in 0 0.674967f
C4 vdd 0 3.214341f
C5 buf_out 0 0.447624f
C6 vss 0 0.496985f
C7 inv2_0/inv_in 0 0.832311f
.ends

.subckt XMdiff_cmp a_192_n100# a_n280_n100# a_n192_n183# a_n52_n100# a_n424_n324#
+ a_52_n183#
X0 a_192_n100# a_52_n183# a_n52_n100# a_n424_n324# nfet_06v0 ad=0.44p pd=2.88u as=0.26p ps=1.52u w=1u l=0.7u
X1 a_n52_n100# a_n192_n183# a_n280_n100# a_n424_n324# nfet_06v0 ad=0.26p pd=1.52u as=0.44p ps=2.88u w=1u l=0.7u
C0 a_192_n100# a_n424_n324# 0.113177f
C1 a_n280_n100# a_n424_n324# 0.113177f
C2 a_52_n183# a_n424_n324# 0.342168f
C3 a_n192_n183# a_n424_n324# 0.342168f
.ends

.subckt XM3_trims a_n2052_n100# a_n2668_n324# a_n1808_n100# a_n1948_n183# a_n1564_n100#
+ a_n2524_n100# a_n1704_n183# a_n2296_n100# a_n2192_n183# a_n2436_n183#
X0 a_n2052_n100# a_n2192_n183# a_n2296_n100# a_n2668_n324# nfet_06v0 ad=0.26p pd=1.52u as=0.26p ps=1.52u w=1u l=0.7u
X1 a_n1564_n100# a_n1704_n183# a_n1808_n100# a_n2668_n324# nfet_06v0 ad=0.44p pd=2.88u as=0.26p ps=1.52u w=1u l=0.7u
X2 a_n1808_n100# a_n1948_n183# a_n2052_n100# a_n2668_n324# nfet_06v0 ad=0.26p pd=1.52u as=0.26p ps=1.52u w=1u l=0.7u
X3 a_n2296_n100# a_n2436_n183# a_n2524_n100# a_n2668_n324# nfet_06v0 ad=0.26p pd=1.52u as=0.44p ps=2.88u w=1u l=0.7u
C0 a_n2524_n100# a_n2668_n324# 0.113177f
C1 a_n1704_n183# a_n2668_n324# 0.334286f
C2 a_n1948_n183# a_n2668_n324# 0.306841f
C3 a_n2192_n183# a_n2668_n324# 0.30709f
C4 a_n2436_n183# a_n2668_n324# 0.34169f
.ends

.subckt XM2_trims a_n4456_n324# a_n3948_n183# a_n3808_n100# a_n4280_n100# a_n4052_n100#
+ a_n4192_n183# a_n4456_252#
X0 a_n4052_n100# a_n4192_n183# a_n4280_n100# a_n4456_n324# nfet_06v0 ad=0.26p pd=1.52u as=0.44p ps=2.88u w=1u l=0.7u
X1 a_n3808_n100# a_n3948_n183# a_n4052_n100# a_n4456_n324# nfet_06v0 ad=0.44p pd=2.88u as=0.26p ps=1.52u w=1u l=0.7u
C0 a_n3948_n183# a_n4456_n324# 0.334154f
C1 a_n4192_n183# a_n4456_n324# 0.334154f
.ends

.subckt XM1_trims G D a_n5302_n324# S a_n5302_252#
X0 D G S a_n5302_n324# nfet_06v0 ad=0.44p pd=2.88u as=0.44p ps=2.88u w=1u l=0.7u
C0 G a_n5302_n324# 0.361695f
.ends

.subckt XM4_trims a_436_n100# a_192_n100# a_n1188_n324# a_n296_n100# a_784_n183# a_n192_n183#
+ a_n436_n183# a_540_n183# a_n52_n100# a_924_n100# a_680_n100# a_n1012_n100# a_n784_n100#
+ a_n924_n183# a_n680_n183# a_n540_n100# a_296_n183# a_52_n183#
X0 a_436_n100# a_296_n183# a_192_n100# a_n1188_n324# nfet_06v0 ad=0.26p pd=1.52u as=0.26p ps=1.52u w=1u l=0.7u
X1 a_n784_n100# a_n924_n183# a_n1012_n100# a_n1188_n324# nfet_06v0 ad=0.26p pd=1.52u as=0.44p ps=2.88u w=1u l=0.7u
X2 a_192_n100# a_52_n183# a_n52_n100# a_n1188_n324# nfet_06v0 ad=0.26p pd=1.52u as=0.26p ps=1.52u w=1u l=0.7u
X3 a_680_n100# a_540_n183# a_436_n100# a_n1188_n324# nfet_06v0 ad=0.26p pd=1.52u as=0.26p ps=1.52u w=1u l=0.7u
X4 a_924_n100# a_784_n183# a_680_n100# a_n1188_n324# nfet_06v0 ad=0.44p pd=2.88u as=0.26p ps=1.52u w=1u l=0.7u
X5 a_n52_n100# a_n192_n183# a_n296_n100# a_n1188_n324# nfet_06v0 ad=0.26p pd=1.52u as=0.26p ps=1.52u w=1u l=0.7u
X6 a_n296_n100# a_n436_n183# a_n540_n100# a_n1188_n324# nfet_06v0 ad=0.26p pd=1.52u as=0.26p ps=1.52u w=1u l=0.7u
X7 a_n540_n100# a_n680_n183# a_n784_n100# a_n1188_n324# nfet_06v0 ad=0.26p pd=1.52u as=0.26p ps=1.52u w=1u l=0.7u
C0 a_924_n100# a_n1188_n324# 0.113177f
C1 a_784_n183# a_n1188_n324# 0.34169f
C2 a_540_n183# a_n1188_n324# 0.30709f
C3 a_296_n183# a_n1188_n324# 0.306841f
C4 a_52_n183# a_n1188_n324# 0.306744f
C5 a_n192_n183# a_n1188_n324# 0.306698f
C6 a_n436_n183# a_n1188_n324# 0.306672f
C7 a_n680_n183# a_n1188_n324# 0.306613f
C8 a_n924_n183# a_n1188_n324# 0.334154f
.ends

.subckt XM0_trims G D a_n5334_252# a_n5334_n324# S
X0 S G D a_n5334_n324# nfet_06v0 ad=0.44p pd=2.88u as=0.44p ps=2.88u w=1u l=0.7u
C0 G a_n5334_n324# 0.361695f
.ends

.subckt trim_switch d_0 d_4 d_1 d_2 d_3 n1 n4 n0 n2 n3 temp
XXM3_trims_0 n3 temp temp d_3 n3 n3 d_3 temp d_3 d_3 XM3_trims
XXM2_trims_0 temp d_2 n2 n2 temp d_2 temp XM2_trims
XXM1_trims_0 d_1 n1 temp temp temp XM1_trims
XXM4_trims_0 n4 temp temp temp d_4 d_4 d_4 d_4 n4 n4 temp n4 temp d_4 d_4 n4 d_4 d_4
+ XM4_trims
XXM0_trims_0 d_0 n0 temp temp temp XM0_trims
C0 temp n4 0.911975f
C1 n4 d_4 0.398929f
C2 temp d_2 0.167792f
C3 temp n3 0.525466f
C4 n3 d_3 0.171874f
C5 temp d_3 0.296319f
C6 temp d_4 0.548654f
C7 d_1 d_0 0.106626f
C8 temp n2 0.250074f
C9 temp 0 2.446552f
C10 n0 0 0.124932f
C11 d_0 0 0.439168f
C12 n4 0 1.16294f
C13 d_4 0 2.753248f
C14 n1 0 0.124932f
C15 d_1 0 0.45424f
C16 n2 0 0.387627f
C17 d_2 0 0.774668f
C18 n3 0 0.70735f
C19 d_3 0 1.473152f
.ends

.subckt trim d_0 d_4 d_1 d_2 d_3 n1 n4 n0 n2 n3 drain vss
Xtrim_switch_0 d_0 d_4 d_1 d_2 d_3 n1 n4 n0 n2 n3 vss trim_switch
C0 n2 n3 0.584482f
C1 n2 n4 0.616308f
C2 drain n3 6.427484f
C3 n0 n4 0.166348f
C4 drain n4 12.877382f
C5 n2 n0 0.116341f
C6 n2 drain 3.213024f
C7 n3 vss 0.139026f
C8 vss n4 0.206884f
C9 drain n0 1.60623f
C10 drain vss 3.229077f
C11 n4 n1 0.166777f
C12 n0 n1 0.506269f
C13 drain n1 1.60623f
C14 n3 n4 1.599582f
C15 n2 0 1.998525f
C16 n0 0 0.627477f
C17 n1 0 0.643951f
C18 n4 0 4.635427f
C19 drain 0 -9.135383f
C20 n3 0 3.342805f
C21 vss 0 4.401155f
C22 d_0 0 0.431586f
C23 d_4 0 2.753248f
C24 d_1 0 0.446833f
C25 d_2 0 0.774668f
C26 d_3 0 1.473152f
.ends

.subckt XMinp_cmp G D a_n302_n324# a_n302_252# S
X0 D G S a_n302_n324# nfet_06v0 ad=0.44p pd=2.88u as=0.44p ps=2.88u w=1u l=0.7u
C0 G a_n302_n324# 0.361695f
.ends

.subckt XM4_cmp G D w_n319_n356# S VSUBS
X0 D G S w_n319_n356# pfet_06v0 ad=0.44p pd=2.88u as=0.44p ps=2.88u w=1u l=0.55u
C0 G w_n319_n356# 0.186402f
C1 G VSUBS 0.124686f
C2 w_n319_n356# VSUBS 1.47408f
.ends

.subckt XMl4_cmp G D w_n319_n356# S VSUBS
X0 D G S w_n319_n356# pfet_06v0 ad=0.44p pd=2.88u as=0.44p ps=2.88u w=1u l=0.55u
C0 G w_n319_n356# 0.19321f
C1 G VSUBS 0.11767f
C2 w_n319_n356# VSUBS 2.12132f
.ends

.subckt XMl3_cmp G D w_n319_n356# S VSUBS
X0 D G S w_n319_n356# pfet_06v0 ad=0.44p pd=2.88u as=0.44p ps=2.88u w=1u l=0.55u
C0 G w_n319_n356# 0.19321f
C1 G VSUBS 0.11767f
C2 w_n319_n356# VSUBS 2.12131f
.ends

.subckt XM3_cmp G D w_n319_n356# S VSUBS
X0 D G S w_n319_n356# pfet_06v0 ad=0.44p pd=2.88u as=0.44p ps=2.88u w=1u l=0.55u
C0 G w_n319_n356# 0.19321f
C1 G VSUBS 0.11767f
C2 w_n319_n356# VSUBS 2.12131f
.ends

.subckt XMinn_cmp G D a_n302_n324# a_n302_252# S
X0 D G S a_n302_n324# nfet_06v0 ad=0.44p pd=2.88u as=0.44p ps=2.88u w=1u l=0.7u
C0 G a_n302_n324# 0.361695f
.ends

.subckt XM2_cmp G D w_n319_n356# S VSUBS
X0 D G S w_n319_n356# pfet_06v0 ad=0.44p pd=2.88u as=0.44p ps=2.88u w=1u l=0.55u
C0 G w_n319_n356# 0.19321f
C1 G VSUBS 0.11767f
C2 w_n319_n356# VSUBS 2.12131f
.ends

.subckt XMl2_cmp G D a_n302_n324# S
X0 D G S a_n302_n324# nfet_06v0 ad=0.44p pd=2.88u as=0.44p ps=2.88u w=1u l=0.7u
C0 G a_n302_n324# 0.368221f
.ends

.subckt XM1_cmp G D w_n319_n356# S VSUBS
X0 D G S w_n319_n356# pfet_06v0 ad=0.44p pd=2.88u as=0.44p ps=2.88u w=1u l=0.55u
C0 G w_n319_n356# 0.186402f
C1 G VSUBS 0.124686f
C2 w_n319_n356# VSUBS 1.47408f
.ends

.subckt XMl1_cmp G D a_n302_n324# S
X0 D G S a_n302_n324# nfet_06v0 ad=0.44p pd=2.88u as=0.44p ps=2.88u w=1u l=0.7u
C0 G a_n302_n324# 0.368221f
.ends

.subckt comparator trim1 trim0 trim2 trim3 trim4 trimb4 trimb1 trimb0 trimb2 vp vn
+ outp outn trim_1/n3 vdd XM1_cmp_0/D clkc trimb3 trim_0/n3 XM4_cmp_0/D vss
XXMdiff_cmp_0 vss vss clkc XMinp_cmp_0/S vss clkc XMdiff_cmp
Xtrim_0 trimb0 trimb4 trimb1 trimb2 trimb3 trim_0/n1 trim_0/n4 trim_0/n0 trim_0/n2
+ trim_0/n3 XM4_cmp_0/D vss trim
Xtrim_1 trim0 trim4 trim1 trim2 trim3 trim_1/n1 trim_1/n4 trim_1/n0 trim_1/n2 trim_1/n3
+ XM1_cmp_0/D vss trim
XXMinp_cmp_0 vp XM4_cmp_0/D vss vss XMinp_cmp_0/S XMinp_cmp
XXM4_cmp_0 clkc XM4_cmp_0/D vdd vdd vss XM4_cmp
XXMl4_cmp_0 outn outp vdd vdd vss XMl4_cmp
XXMl3_cmp_0 outp outn vdd vdd vss XMl3_cmp
XXM3_cmp_0 clkc outp vdd vdd vss XM3_cmp
XXMinn_cmp_0 vn XM1_cmp_0/D vss vss XMinp_cmp_0/S XMinn_cmp
XXM2_cmp_0 clkc outn vdd vdd vss XM2_cmp
XXMl2_cmp_0 outn outp vss XM4_cmp_0/D XMl2_cmp
XXM1_cmp_0 clkc XM1_cmp_0/D vdd vdd vss XM1_cmp
XXMl1_cmp_0 outp outn vss XM1_cmp_0/D XMl1_cmp
C0 trim1 trim0 0.713549f
C1 vss clkc 0.618682f
C2 trim4 trim1 0.397758f
C3 trim_1/n2 trim_1/n4 0.128631f
C4 vss XM4_cmp_0/D 3.443847f
C5 trim2 trim3 0.902342f
C6 clkc outp 0.295692f
C7 XM4_cmp_0/D outp 0.10316f
C8 vn vp 0.125877f
C9 clkc XM4_cmp_0/D 0.528032f
C10 trim_0/n4 trim_0/n2 0.128631f
C11 trim_1/n2 XM1_cmp_0/D 3.218424f
C12 vss outn 0.457585f
C13 trim_1/n1 XM1_cmp_0/D 1.606869f
C14 vss trim4 0.154051f
C15 vss trimb4 0.154051f
C16 trim_0/n4 trim_0/n3 0.241184f
C17 outn outp 1.39519f
C18 outn clkc 0.29566f
C19 trim0 trim2 0.786004f
C20 trim_1/n4 XM1_cmp_0/D 12.853152f
C21 trim_1/n3 trim_1/n4 0.241184f
C22 vdd XM1_cmp_0/D 0.108547f
C23 vn XM1_cmp_0/D 0.448228f
C24 trimb3 trimb2 0.902342f
C25 trim_0/n0 XM4_cmp_0/D 1.606869f
C26 vp outp 0.256864f
C27 vp clkc 0.133362f
C28 trim_0/n4 XM4_cmp_0/D 12.853152f
C29 trim_1/n3 XM1_cmp_0/D 6.426837f
C30 vp XM4_cmp_0/D 0.448228f
C31 trimb0 trimb2 0.786004f
C32 trimb1 trimb4 0.397758f
C33 trim_0/n1 XM4_cmp_0/D 1.606869f
C34 vss XM1_cmp_0/D 3.44372f
C35 outn vp 0.159375f
C36 trimb0 trimb1 0.713549f
C37 vdd outp 0.454873f
C38 clkc vdd 0.289807f
C39 vn outp 0.19705f
C40 vn clkc 0.133362f
C41 XM4_cmp_0/D vdd 0.108547f
C42 clkc XM1_cmp_0/D 0.528032f
C43 trim_0/n2 XM4_cmp_0/D 3.218424f
C44 trim_1/n0 XM1_cmp_0/D 1.606869f
C45 outn vdd 0.503383f
C46 vn outn 0.199287f
C47 outn XM1_cmp_0/D 0.103141f
C48 trim_0/n3 XM4_cmp_0/D 6.426837f
C49 vss outp 0.458491f
C50 outp 0 2.271068f
C51 outn 0 2.225997f
C52 vdd 0 9.215822f
C53 vn 0 1.207921f
C54 vp 0 1.193091f
C55 trim_1/n2 0 1.998525f
C56 trim_1/n0 0 0.627477f
C57 trim_1/n1 0 0.643951f
C58 trim_1/n4 0 4.635427f
C59 XM1_cmp_0/D 0 -7.798843f
C60 trim_1/n3 0 3.342805f
C61 vss 0 12.362443f
C62 trim0 0 1.018331f
C63 trim4 0 3.13965f
C64 trim1 0 1.001356f
C65 trim2 0 1.580338f
C66 trim3 0 3.420755f
C67 trim_0/n2 0 1.998525f
C68 trim_0/n0 0 0.627477f
C69 trim_0/n1 0 0.643951f
C70 trim_0/n4 0 4.635427f
C71 XM4_cmp_0/D 0 -7.798843f
C72 trim_0/n3 0 3.342805f
C73 trimb0 0 1.018331f
C74 trimb4 0 3.13965f
C75 trimb1 0 1.001356f
C76 trimb2 0 1.580338f
C77 trimb3 0 3.420755f
C78 XMinp_cmp_0/S 0 0.212313f
C79 clkc 0 4.573033f
.ends

.subckt gf180mcu_fd_sc_mcu7t5v0__fillcap_8 VDD VSS VPW VNW a_36_472# a_572_375# VSUBS
X0 VDD a_572_375# a_484_472# VNW pfet_06v0 ad=0.5368p pd=3.32u as=0.5368p ps=3.32u w=1.22u l=1u
X1 a_572_375# a_484_472# VSS VSUBS nfet_06v0 ad=0.3608p pd=2.52u as=0.3608p ps=2.52u w=0.82u l=1u
X2 a_124_375# a_36_472# VSS VSUBS nfet_06v0 ad=0.3608p pd=2.52u as=0.3608p ps=2.52u w=0.82u l=1u
X3 VDD a_124_375# a_36_472# VNW pfet_06v0 ad=0.5368p pd=3.32u as=0.5368p ps=3.32u w=1.22u l=1u
C0 a_572_375# VNW 0.18122f
C1 a_124_375# VDD 0.12673f
C2 a_484_472# a_572_375# 0.285629f
C3 a_572_375# VDD 0.129266f
C4 a_36_472# VSS 0.151218f
C5 a_484_472# VSS 0.148682f
C6 VNW VDD 0.11314f
C7 a_124_375# VNW 0.180172f
C8 a_36_472# a_124_375# 0.285629f
C9 a_484_472# VDD 0.179463f
C10 a_124_375# VSS 0.136476f
C11 VSS VSUBS 0.360066f
C12 VDD VSUBS 0.286281f
C13 VNW VSUBS 1.65967f
C14 a_484_472# VSUBS 0.345058f
C15 a_36_472# VSUBS 0.404746f
C16 a_572_375# VSUBS 0.232991f
C17 a_124_375# VSUBS 0.185089f
.ends

.subckt gf180mcu_fd_sc_mcu7t5v0__antenna VSS I VDD VPW VNW VSUBS
D0 VSUBS I diode_nd2ps_06v0 pj=1.86u area=0.2052p
D1 I VNW diode_pd2nw_06v0 pj=1.86u area=0.2052p
C0 VSS VSUBS 0.12617f
C1 I VSUBS 0.139667f
C2 VNW VSUBS 0.615384f
.ends

.subckt gf180mcu_fd_sc_mcu7t5v0__nor2_1 VDD VSS ZN A1 A2 VPW VNW VSUBS
X0 ZN A1 a_224_472# VNW pfet_06v0 ad=0.5368p pd=3.32u as=0.4087p ps=1.89u w=1.22u l=0.5u
X1 VSS A1 ZN VSUBS nfet_06v0 ad=0.2486p pd=2.01u as=0.1469p ps=1.085u w=0.565u l=0.6u
X2 a_224_472# A2 VDD VNW pfet_06v0 ad=0.4087p pd=1.89u as=0.5368p ps=3.32u w=1.22u l=0.5u
X3 ZN A2 VSS VSUBS nfet_06v0 ad=0.1469p pd=1.085u as=0.2486p ps=2.01u w=0.565u l=0.6u
C0 ZN A1 0.579732f
C1 VSS A1 0.168633f
C2 VNW A1 0.136915f
C3 VDD ZN 0.117921f
C4 A2 VDD 0.255318f
C5 A2 ZN 0.378409f
C6 A2 VNW 0.128798f
C7 VSS VSUBS 0.331491f
C8 VDD VSUBS 0.218051f
C9 A1 VSUBS 0.331856f
C10 A2 VSUBS 0.334514f
C11 VNW VSUBS 1.31158f
.ends

.subckt gf180mcu_fd_sc_mcu7t5v0__dffrnq_1 D Q RN VSS CLK VDD VPW VNW a_2665_112# a_36_151#
+ VSUBS
X0 VSS CLK a_36_151# VSUBS nfet_06v0 ad=0.1053p pd=0.925u as=0.1782p ps=1.69u w=0.405u l=0.6u
X1 VSS RN a_1456_156# VSUBS nfet_06v0 ad=0.2016p pd=1.48u as=43.199997f ps=0.6u w=0.36u l=0.6u
X2 Q a_2665_112# VDD VNW pfet_06v0 ad=0.5346p pd=3.31u as=0.5346p ps=3.31u w=1.215u l=0.5u
X3 a_796_472# D VSS VSUBS nfet_06v0 ad=93.59999f pd=0.88u as=0.1584p ps=1.6u w=0.36u l=0.6u
X4 VSS a_2665_112# a_2560_156# VSUBS nfet_06v0 ad=0.1224p pd=1.04u as=94.5f ps=0.885u w=0.36u l=0.6u
X5 a_2665_112# a_2248_156# a_3041_156# VSUBS nfet_06v0 ad=0.176p pd=1.68u as=0.134p ps=1.1u w=0.4u l=0.6u
X6 a_1000_472# a_448_472# a_796_472# VNW pfet_06v0 ad=0.2028p pd=1.3u as=0.2028p ps=1.3u w=0.78u l=0.5u
X7 a_2248_156# a_36_151# a_1308_423# VNW pfet_06v0 ad=0.25375p pd=1.51u as=0.2424p ps=1.465u w=0.505u l=0.5u
X8 a_2248_156# a_448_472# a_1308_423# VSUBS nfet_06v0 ad=0.2007p pd=1.475u as=0.2007p ps=1.475u w=0.36u l=0.6u
X9 VDD CLK a_36_151# VNW pfet_06v0 ad=0.2249p pd=1.385u as=0.3806p ps=2.61u w=0.865u l=0.5u
X10 a_1456_156# a_1308_423# a_1288_156# VSUBS nfet_06v0 ad=43.199997f pd=0.6u as=43.199997f ps=0.6u w=0.36u l=0.6u
X11 a_1308_423# a_1000_472# VSS VSUBS nfet_06v0 ad=0.2007p pd=1.475u as=0.2016p ps=1.48u w=0.36u l=0.6u
X12 Q a_2665_112# VSS VSUBS nfet_06v0 ad=0.3586p pd=2.51u as=0.3586p ps=2.51u w=0.815u l=0.6u
X13 a_448_472# a_36_151# VDD VNW pfet_06v0 ad=0.3806p pd=2.61u as=0.2249p ps=1.385u w=0.865u l=0.5u
X14 a_1204_472# a_36_151# a_1000_472# VNW pfet_06v0 ad=0.2028p pd=1.3u as=0.2028p ps=1.3u w=0.78u l=0.5u
X15 a_1204_472# RN VDD VNW pfet_06v0 ad=0.3432p pd=2.44u as=0.45p ps=2.02u w=0.78u l=0.5u
X16 a_2665_112# RN VDD VNW pfet_06v0 ad=0.26p pd=1.52u as=0.29465p ps=1.74u w=1u l=0.5u
X17 a_2560_156# a_36_151# a_2248_156# VSUBS nfet_06v0 ad=94.5f pd=0.885u as=0.2007p ps=1.475u w=0.36u l=0.6u
X18 VDD a_2248_156# a_2665_112# VNW pfet_06v0 ad=0.44p pd=2.88u as=0.26p ps=1.52u w=1u l=0.5u
X19 a_1288_156# a_448_472# a_1000_472# VSUBS nfet_06v0 ad=43.199997f pd=0.6u as=93.59999f ps=0.88u w=0.36u l=0.6u
X20 VDD a_1308_423# a_1204_472# VNW pfet_06v0 ad=0.45p pd=2.02u as=0.2028p ps=1.3u w=0.78u l=0.5u
X21 a_2560_156# a_448_472# a_2248_156# VNW pfet_06v0 ad=0.1313p pd=1.025u as=0.25375p ps=1.51u w=0.505u l=0.5u
X22 a_448_472# a_36_151# VSS VSUBS nfet_06v0 ad=0.1782p pd=1.69u as=0.1053p ps=0.925u w=0.405u l=0.6u
X23 a_3041_156# RN VSS VSUBS nfet_06v0 ad=0.134p pd=1.1u as=0.1224p ps=1.04u w=0.36u l=0.6u
X24 VDD a_2665_112# a_2560_156# VNW pfet_06v0 ad=0.29465p pd=1.74u as=0.1313p ps=1.025u w=0.505u l=0.5u
X25 a_1308_423# a_1000_472# VDD VNW pfet_06v0 ad=0.2424p pd=1.465u as=0.2222p ps=1.89u w=0.505u l=0.5u
X26 a_1000_472# a_36_151# a_796_472# VSUBS nfet_06v0 ad=93.59999f pd=0.88u as=93.59999f ps=0.88u w=0.36u l=0.6u
X27 a_796_472# D VDD VNW pfet_06v0 ad=0.2028p pd=1.3u as=0.3432p ps=2.44u w=0.78u l=0.5u
C0 a_2665_112# VSS 0.184997f
C1 a_2560_156# VSS 0.128503f
C2 VNW a_1308_423# 0.149014f
C3 a_448_472# a_2248_156# 0.510371f
C4 VNW a_1000_472# 0.241357f
C5 VDD a_36_151# 0.417088f
C6 VNW CLK 0.137037f
C7 VNW RN 0.329494f
C8 VDD a_2248_156# 1.11667f
C9 VDD a_1204_472# 0.282626f
C10 VDD Q 0.149344f
C11 RN VSS 0.441968f
C12 a_2665_112# a_2248_156# 0.633318f
C13 a_2560_156# a_2248_156# 0.119687f
C14 a_2665_112# Q 0.109436f
C15 a_448_472# VDD 0.456269f
C16 VNW a_36_151# 1.28833f
C17 CLK a_36_151# 0.669598f
C18 a_1000_472# a_1204_472# 0.66083f
C19 a_2560_156# a_448_472# 0.277491f
C20 a_448_472# D 0.328788f
C21 VSS a_36_151# 0.291264f
C22 a_448_472# a_796_472# 0.401636f
C23 VNW a_2248_156# 0.212431f
C24 a_1308_423# a_448_472# 0.882105f
C25 a_448_472# a_1000_472# 0.361958f
C26 a_2665_112# VDD 0.102046f
C27 Q VSS 0.113401f
C28 VNW a_448_472# 0.341284f