* NGSPICE file created from sarlogic.ext - technology: gf180mcuD

.subckt gf180mcu_fd_sc_mcu7t5v0__fillcap_8 VDD VSS VPW VNW a_36_472# a_572_375# VSUBS
X0 VDD a_572_375# a_484_472# VNW pfet_06v0 ad=0.5368p pd=3.32u as=0.5368p ps=3.32u w=1.22u l=1u
X1 a_572_375# a_484_472# VSS VSUBS nfet_06v0 ad=0.3608p pd=2.52u as=0.3608p ps=2.52u w=0.82u l=1u
X2 a_124_375# a_36_472# VSS VSUBS nfet_06v0 ad=0.3608p pd=2.52u as=0.3608p ps=2.52u w=0.82u l=1u
X3 VDD a_124_375# a_36_472# VNW pfet_06v0 ad=0.5368p pd=3.32u as=0.5368p ps=3.32u w=1.22u l=1u
C0 VNW VDD 0.11314f
C1 a_572_375# VDD 0.129266f
C2 VSS a_484_472# 0.148682f
C3 VSS a_124_375# 0.136476f
C4 VSS a_36_472# 0.151218f
C5 a_572_375# a_484_472# 0.285629f
C6 a_124_375# a_36_472# 0.285629f
C7 a_124_375# VNW 0.180172f
C8 a_484_472# VDD 0.179463f
C9 a_572_375# VNW 0.18122f
C10 a_124_375# VDD 0.12673f
C11 VSS VSUBS 0.360066f
C12 VDD VSUBS 0.286281f
C13 VNW VSUBS 1.65967f
C14 a_484_472# VSUBS 0.345058f
C15 a_36_472# VSUBS 0.404746f
C16 a_572_375# VSUBS 0.232991f
C17 a_124_375# VSUBS 0.185089f
.ends

.subckt gf180mcu_fd_sc_mcu7t5v0__antenna VSS I VDD VPW VNW VSUBS
D0 VSUBS I diode_nd2ps_06v0 pj=1.86u area=0.2052p
D1 I VNW diode_pd2nw_06v0 pj=1.86u area=0.2052p
C0 VSS VSUBS 0.12617f
C1 I VSUBS 0.139667f
C2 VNW VSUBS 0.615384f
.ends

.subckt gf180mcu_fd_sc_mcu7t5v0__nor2_1 VDD VSS ZN A1 A2 VPW VNW VSUBS
X0 ZN A1 a_224_472# VNW pfet_06v0 ad=0.5368p pd=3.32u as=0.4087p ps=1.89u w=1.22u l=0.5u
X1 VSS A1 ZN VSUBS nfet_06v0 ad=0.2486p pd=2.01u as=0.1469p ps=1.085u w=0.565u l=0.6u
X2 a_224_472# A2 VDD VNW pfet_06v0 ad=0.4087p pd=1.89u as=0.5368p ps=3.32u w=1.22u l=0.5u
X3 ZN A2 VSS VSUBS nfet_06v0 ad=0.1469p pd=1.085u as=0.2486p ps=2.01u w=0.565u l=0.6u
C0 ZN A2 0.378409f
C1 ZN A1 0.579732f
C2 VDD A2 0.255318f
C3 VNW A2 0.128798f
C4 VSS A1 0.168633f
C5 VNW A1 0.136915f
C6 VDD ZN 0.117921f
C7 VSS VSUBS 0.331491f
C8 VDD VSUBS 0.218051f
C9 A1 VSUBS 0.331856f
C10 A2 VSUBS 0.334514f
C11 VNW VSUBS 1.31158f
.ends

.subckt gf180mcu_fd_sc_mcu7t5v0__dffrnq_1 D Q RN VSS CLK VDD VPW VNW a_2665_112# a_36_151#
+ VSUBS
X0 VSS CLK a_36_151# VSUBS nfet_06v0 ad=0.1053p pd=0.925u as=0.1782p ps=1.69u w=0.405u l=0.6u
X1 VSS RN a_1456_156# VSUBS nfet_06v0 ad=0.2016p pd=1.48u as=43.199997f ps=0.6u w=0.36u l=0.6u
X2 Q a_2665_112# VDD VNW pfet_06v0 ad=0.5346p pd=3.31u as=0.5346p ps=3.31u w=1.215u l=0.5u
X3 a_796_472# D VSS VSUBS nfet_06v0 ad=93.59999f pd=0.88u as=0.1584p ps=1.6u w=0.36u l=0.6u
X4 VSS a_2665_112# a_2560_156# VSUBS nfet_06v0 ad=0.1224p pd=1.04u as=94.5f ps=0.885u w=0.36u l=0.6u
X5 a_2665_112# a_2248_156# a_3041_156# VSUBS nfet_06v0 ad=0.176p pd=1.68u as=0.134p ps=1.1u w=0.4u l=0.6u
X6 a_1000_472# a_448_472# a_796_472# VNW pfet_06v0 ad=0.2028p pd=1.3u as=0.2028p ps=1.3u w=0.78u l=0.5u
X7 a_2248_156# a_36_151# a_1308_423# VNW pfet_06v0 ad=0.25375p pd=1.51u as=0.2424p ps=1.465u w=0.505u l=0.5u
X8 a_2248_156# a_448_472# a_1308_423# VSUBS nfet_06v0 ad=0.2007p pd=1.475u as=0.2007p ps=1.475u w=0.36u l=0.6u
X9 VDD CLK a_36_151# VNW pfet_06v0 ad=0.2249p pd=1.385u as=0.3806p ps=2.61u w=0.865u l=0.5u
X10 a_1456_156# a_1308_423# a_1288_156# VSUBS nfet_06v0 ad=43.199997f pd=0.6u as=43.199997f ps=0.6u w=0.36u l=0.6u
X11 a_1308_423# a_1000_472# VSS VSUBS nfet_06v0 ad=0.2007p pd=1.475u as=0.2016p ps=1.48u w=0.36u l=0.6u
X12 Q a_2665_112# VSS VSUBS nfet_06v0 ad=0.3586p pd=2.51u as=0.3586p ps=2.51u w=0.815u l=0.6u
X13 a_448_472# a_36_151# VDD VNW pfet_06v0 ad=0.3806p pd=2.61u as=0.2249p ps=1.385u w=0.865u l=0.5u
X14 a_1204_472# a_36_151# a_1000_472# VNW pfet_06v0 ad=0.2028p pd=1.3u as=0.2028p ps=1.3u w=0.78u l=0.5u
X15 a_1204_472# RN VDD VNW pfet_06v0 ad=0.3432p pd=2.44u as=0.45p ps=2.02u w=0.78u l=0.5u
X16 a_2665_112# RN VDD VNW pfet_06v0 ad=0.26p pd=1.52u as=0.29465p ps=1.74u w=1u l=0.5u
X17 a_2560_156# a_36_151# a_2248_156# VSUBS nfet_06v0 ad=94.5f pd=0.885u as=0.2007p ps=1.475u w=0.36u l=0.6u
X18 VDD a_2248_156# a_2665_112# VNW pfet_06v0 ad=0.44p pd=2.88u as=0.26p ps=1.52u w=1u l=0.5u
X19 a_1288_156# a_448_472# a_1000_472# VSUBS nfet_06v0 ad=43.199997f pd=0.6u as=93.59999f ps=0.88u w=0.36u l=0.6u
X20 VDD a_1308_423# a_1204_472# VNW pfet_06v0 ad=0.45p pd=2.02u as=0.2028p ps=1.3u w=0.78u l=0.5u
X21 a_2560_156# a_448_472# a_2248_156# VNW pfet_06v0 ad=0.1313p pd=1.025u as=0.25375p ps=1.51u w=0.505u l=0.5u
X22 a_448_472# a_36_151# VSS VSUBS nfet_06v0 ad=0.1782p pd=1.69u as=0.1053p ps=0.925u w=0.405u l=0.6u
X23 a_3041_156# RN VSS VSUBS nfet_06v0 ad=0.134p pd=1.1u as=0.1224p ps=1.04u w=0.36u l=0.6u
X24 VDD a_2665_112# a_2560_156# VNW pfet_06v0 ad=0.29465p pd=1.74u as=0.1313p ps=1.025u w=0.505u l=0.5u
X25 a_1308_423# a_1000_472# VDD VNW pfet_06v0 ad=0.2424p pd=1.465u as=0.2222p ps=1.89u w=0.505u l=0.5u
X26 a_1000_472# a_36_151# a_796_472# VSUBS nfet_06v0 ad=93.59999f pd=0.88u as=93.59999f ps=0.88u w=0.36u l=0.6u
X27 a_796_472# D VDD VNW pfet_06v0 ad=0.2028p pd=1.3u as=0.3432p ps=2.44u w=0.78u l=0.5u
C0 D a_448_472# 0.328788f
C1 a_2665_112# RN 0.336469f
C2 a_448_472# a_2248_156# 0.510371f
C3 a_36_151# a_448_472# 0.536965f
C4 VSS a_448_472# 1.20207f
C5 VDD a_1204_472# 0.282626f
C6 VNW CLK 0.137037f
C7 a_2560_156# a_448_472# 0.277491f
C8 VNW D 0.128231f
C9 VNW a_2248_156# 0.212431f
C10 VNW a_36_151# 1.28833f
C11 a_1308_423# a_1000_472# 0.934191f
C12 VDD Q 0.149344f
C13 a_1000_472# a_1204_472# 0.66083f
C14 VDD a_2248_156# 1.11667f
C15 VDD a_36_151# 0.417088f
C16 a_796_472# a_448_472# 0.401636f
C17 RN VSS 0.441968f
C18 VNW a_448_472# 0.341284f
C19 a_2665_112# Q 0.109436f
C20 VDD a_448_472# 0.456269f
C21 a_2665_112# a_2248_156# 0.633318f
C22 a_2665_112# VSS 0.184997f
C23 a_2665_112# a_2560_156# 0.116059f
C24 a_1000_472# a_448_472# 0.361958f
C25 VNW VDD 0.503557f
C26 VNW RN 0.329494f
C27 CLK a_36_151# 0.669598f
C28 a_1308_423# a_448_472# 0.882105f
C29 VNW a_1000_472# 0.241357f
C30 VSS Q 0.113401f
C31 a_2665_112# VNW 0.354715f
C32 VSS a_36_151# 0.291264f
C33 VDD a_1000_472# 0.119211f
C34 a_2560_156# a_2248_156# 0.119687f
C35 a_2665_112# VDD 0.102046f
C36 a_1308_423# VNW 0.149014f
C37 a_2560_156# VSS 0.128503f
C38 Q VSUBS 0.114762f
C39 VSS VSUBS 1.26186f
C40 RN VSUBS 1.36673f
C41 D VSUBS 0.253406f
C42 VDD VSUBS 0.79945f
C43 CLK VSUBS 0.291241f
C44 VNW VSUBS 6.1377f
C45 a_2665_112# VSUBS 0.62251f
C46 a_2248_156# VSUBS 0.371662f
C47 a_1000_472# VSUBS 0.291735f
C48 a_1308_423# VSUBS 0.279043f
C49 a_448_472# VSUBS 0.684413f
C50 a_36_151# VSUBS 1.43589f
.ends

.subckt gf180mcu_fd_sc_mcu7t5v0__oai22_1 A2 B1 B2 VDD VSS ZN A1 VPW VNW a_36_68# VSUBS
X0 ZN A1 a_36_68# VSUBS nfet_06v0 ad=0.2132p pd=1.34u as=0.2132p ps=1.34u w=0.82u l=0.6u
X1 VSS B2 a_36_68# VSUBS nfet_06v0 ad=0.2132p pd=1.34u as=0.3608p ps=2.52u w=0.82u l=0.6u
X2 a_244_472# B2 VDD VNW pfet_06v0 ad=0.3782p pd=1.84u as=0.6588p ps=3.52u w=1.22u l=0.5u
X3 a_692_472# A1 ZN VNW pfet_06v0 ad=0.3172p pd=1.74u as=0.3782p ps=1.84u w=1.22u l=0.5u
X4 VDD A2 a_692_472# VNW pfet_06v0 ad=0.5368p pd=3.32u as=0.3172p ps=1.74u w=1.22u l=0.5u
X5 a_36_68# A2 ZN VSUBS nfet_06v0 ad=0.3608p pd=2.52u as=0.2132p ps=1.34u w=0.82u l=0.6u
X6 a_36_68# B1 VSS VSUBS nfet_06v0 ad=0.2132p pd=1.34u as=0.2132p ps=1.34u w=0.82u l=0.6u
X7 ZN B1 a_244_472# VNW pfet_06v0 ad=0.3782p pd=1.84u as=0.3782p ps=1.84u w=1.22u l=0.5u
C0 ZN a_36_68# 0.419486f
C1 a_36_68# A2 0.340509f
C2 a_36_68# VSS 0.392965f
C3 A1 VNW 0.115376f
C4 a_36_68# B2 0.369561f
C5 a_36_68# VDD 0.787847f
C6 ZN A2 0.390894f
C7 VNW B1 0.125926f
C8 VNW A2 0.125671f
C9 A1 a_36_68# 0.160084f
C10 VDD B2 0.246452f
C11 A1 B1 0.163724f
C12 VNW B2 0.133721f
C13 VNW VDD 0.139306f
C14 a_36_68# B1 0.437534f
C15 ZN A1 0.430191f
C16 VSS VSUBS 0.383233f
C17 VDD VSUBS 0.318857f
C18 A2 VSUBS 0.2826f
C19 A1 VSUBS 0.258579f
C20 B1 VSUBS 0.257485f
C21 B2 VSUBS 0.309037f
C22 VNW VSUBS 2.00777f
C23 a_36_68# VSUBS 0.150048f
.ends

.subckt gf180mcu_fd_sc_mcu7t5v0__aoi22_1 B1 B2 VDD VSS ZN A1 A2 VPW VNW a_49_472#
+ VSUBS
X0 ZN B1 a_257_69# VSUBS nfet_06v0 ad=0.2119p pd=1.335u as=0.1304p ps=1.135u w=0.815u l=0.6u
X1 VDD B2 a_49_472# VNW pfet_06v0 ad=0.3159p pd=1.735u as=0.5346p ps=3.31u w=1.215u l=0.5u
X2 a_49_472# B1 VDD VNW pfet_06v0 ad=0.3159p pd=1.735u as=0.3159p ps=1.735u w=1.215u l=0.5u
X3 ZN A1 a_49_472# VNW pfet_06v0 ad=0.3159p pd=1.735u as=0.3159p ps=1.735u w=1.215u l=0.5u
X4 a_49_472# A2 ZN VNW pfet_06v0 ad=0.5346p pd=3.31u as=0.3159p ps=1.735u w=1.215u l=0.5u
X5 a_257_69# B2 VSS VSUBS nfet_06v0 ad=0.1304p pd=1.135u as=0.3586p ps=2.51u w=0.815u l=0.6u
X6 a_665_69# A1 ZN VSUBS nfet_06v0 ad=0.1304p pd=1.135u as=0.2119p ps=1.335u w=0.815u l=0.6u
X7 VSS A2 a_665_69# VSUBS nfet_06v0 ad=0.3586p pd=2.51u as=0.1304p ps=1.135u w=0.815u l=0.6u
C0 VDD VNW 0.112326f
C1 A2 ZN 0.102518f
C2 VNW A2 0.131727f
C3 B1 B2 0.18297f
C4 VDD a_49_472# 0.887006f
C5 A2 VSS 0.150463f
C6 a_49_472# ZN 0.239204f
C7 VNW B2 0.129409f
C8 B1 ZN 0.367665f
C9 VNW B1 0.109456f
C10 A1 ZN 0.447732f
C11 A1 A2 0.392541f
C12 VNW A1 0.10965f
C13 B2 a_49_472# 0.151151f
C14 VSS VSUBS 0.39457f
C15 VDD VSUBS 0.243433f
C16 A2 VSUBS 0.322629f
C17 A1 VSUBS 0.250967f
C18 B1 VSUBS 0.261124f
C19 B2 VSUBS 0.322244f
C20 VNW VSUBS 1.83372f
.ends

.subckt gf180mcu_fd_sc_mcu7t5v0__buf_1 VSS Z I VDD VPW VNW a_36_160# VSUBS
X0 Z a_36_160# VSS VSUBS nfet_06v0 ad=0.3608p pd=2.52u as=0.2344p ps=1.56u w=0.82u l=0.6u
X1 Z a_36_160# VDD VNW pfet_06v0 ad=0.5368p pd=3.32u as=0.35315p ps=1.96u w=1.22u l=0.5u
X2 VDD I a_36_160# VNW pfet_06v0 ad=0.35315p pd=1.96u as=0.2486p ps=2.01u w=0.565u l=0.5u
X3 VSS I a_36_160# VSUBS nfet_06v0 ad=0.2344p pd=1.56u as=0.1584p ps=1.6u w=0.36u l=0.6u
C0 VSS Z 0.146199f
C1 a_36_160# Z 0.281838f
C2 Z VDD 0.128274f
C3 I VSS 0.12329f
C4 I a_36_160# 0.545454f
C5 a_36_160# VDD 0.2736f
C6 a_36_160# VNW 0.170864f
C7 I VNW 0.2276f
C8 VSS VSUBS 0.28275f
C9 Z VSUBS 0.10469f
C10 VDD VSUBS 0.178615f
C11 I VSUBS 0.323491f
C12 VNW VSUBS 1.31158f
C13 a_36_160# VSUBS 0.386641f
.ends

.subckt gf180mcu_fd_sc_mcu7t5v0__clkinv_1 VDD VSS I ZN VPW VNW VSUBS
X0 ZN I VSS VSUBS nfet_06v0 ad=0.2112p pd=1.84u as=0.2112p ps=1.84u w=0.48u l=0.6u
X1 ZN I VDD VNW pfet_06v0 ad=0.5368p pd=3.32u as=0.5368p ps=3.32u w=1.22u l=0.5u
C0 I VNW 0.135368f
C1 ZN I 0.47009f
C2 I VDD 0.157124f
C3 VSS VSUBS 0.242183f
C4 VDD VSUBS 0.182097f
C5 I VSUBS 0.355642f
C6 VNW VSUBS 0.96348f
.ends

.subckt gf180mcu_fd_sc_mcu7t5v0__inv_1 VSS ZN I VDD VPW VNW VSUBS
X0 ZN I VSS VSUBS nfet_06v0 ad=0.3608p pd=2.52u as=0.3608p ps=2.52u w=0.82u l=0.6u
X1 ZN I VDD VNW pfet_06v0 ad=0.5368p pd=3.32u as=0.5368p ps=3.32u w=1.22u l=0.5u
C0 I VNW 0.137757f
C1 ZN VSS 0.115297f
C2 ZN VDD 0.137375f
C3 ZN I 0.262199f
C4 VSS VSUBS 0.2316f
C5 ZN VSUBS 0.113404f
C6 VDD VSUBS 0.181139f
C7 I VSUBS 0.341982f
C8 VNW VSUBS 0.96348f
.ends

.subckt gf180mcu_fd_sc_mcu7t5v0__fillcap_4 VDD VSS VPW VNW a_36_472# a_124_375# VSUBS
X0 a_124_375# a_36_472# VSS VSUBS nfet_06v0 ad=0.3608p pd=2.52u as=0.3608p ps=2.52u w=0.82u l=1u
X1 VDD a_124_375# a_36_472# VNW pfet_06v0 ad=0.5368p pd=3.32u as=0.5368p ps=3.32u w=1.22u l=1u
C0 VNW a_124_375# 0.179924f
C1 a_36_472# a_124_375# 0.285629f
C2 VSS a_36_472# 0.150876f
C3 VDD a_124_375# 0.126034f
C4 VSS VSUBS 0.218985f
C5 VDD VSUBS 0.182777f
C6 VNW VSUBS 0.96348f
C7 a_36_472# VSUBS 0.417394f
C8 a_124_375# VSUBS 0.246306f
.ends

.subckt gf180mcu_fd_sc_mcu7t5v0__buf_8 Z I VDD VSS VPW VNW a_224_472# VSUBS
X0 a_224_472# I VDD VNW pfet_06v0 ad=0.3782p pd=1.84u as=0.3782p ps=1.84u w=1.22u l=0.5u
X1 Z a_224_472# VDD VNW pfet_06v0 ad=0.3782p pd=1.84u as=0.3782p ps=1.84u w=1.22u l=0.5u
X2 a_224_472# I VSS VSUBS nfet_06v0 ad=0.2132p pd=1.34u as=0.2132p ps=1.34u w=0.82u l=0.6u
X3 VSS a_224_472# Z VSUBS nfet_06v0 ad=0.3608p pd=2.52u as=0.2132p ps=1.34u w=0.82u l=0.6u
X4 VDD a_224_472# Z VNW pfet_06v0 ad=0.3782p pd=1.84u as=0.3782p ps=1.84u w=1.22u l=0.5u
X5 Z a_224_472# VDD VNW pfet_06v0 ad=0.3782p pd=1.84u as=0.3782p ps=1.84u w=1.22u l=0.5u
X6 a_224_472# I VSS VSUBS nfet_06v0 ad=0.2132p pd=1.34u as=0.3608p ps=2.52u w=0.82u l=0.6u
X7 Z a_224_472# VSS VSUBS nfet_06v0 ad=0.2132p pd=1.34u as=0.2132p ps=1.34u w=0.82u l=0.6u
X8 VDD a_224_472# Z VNW pfet_06v0 ad=0.3782p pd=1.84u as=0.3782p ps=1.84u w=1.22u l=0.5u
X9 Z a_224_472# VSS VSUBS nfet_06v0 ad=0.2132p pd=1.34u as=0.2132p ps=1.34u w=0.82u l=0.6u
X10 Z a_224_472# VSS VSUBS nfet_06v0 ad=0.2132p pd=1.34u as=0.2132p ps=1.34u w=0.82u l=0.6u
X11 VDD I a_224_472# VNW pfet_06v0 ad=0.3782p pd=1.84u as=0.3782p ps=1.84u w=1.22u l=0.5u
X12 VDD a_224_472# Z VNW pfet_06v0 ad=0.3782p pd=1.84u as=0.3782p ps=1.84u w=1.22u l=0.5u
X13 Z a_224_472# VDD VNW pfet_06v0 ad=0.3782p pd=1.84u as=0.3782p ps=1.84u w=1.22u l=0.5u
X14 VSS a_224_472# Z VSUBS nfet_06v0 ad=0.2132p pd=1.34u as=0.2132p ps=1.34u w=0.82u l=0.6u
X15 VDD I a_224_472# VNW pfet_06v0 ad=0.3782p pd=1.84u as=0.3782p ps=1.84u w=1.22u l=0.5u
X16 VSS a_224_472# Z VSUBS nfet_06v0 ad=0.2132p pd=1.34u as=0.2132p ps=1.34u w=0.82u l=0.6u
X17 VDD a_224_472# Z VNW pfet_06v0 ad=0.5368p pd=3.32u as=0.3782p ps=1.84u w=1.22u l=0.5u
X18 VSS a_224_472# Z VSUBS nfet_06v0 ad=0.2132p pd=1.34u as=0.2132p ps=1.34u w=0.82u l=0.6u
X19 Z a_224_472# VDD VNW pfet_06v0 ad=0.3782p pd=1.84u as=0.3782p ps=1.84u w=1.22u l=0.5u
X20 VSS I a_224_472# VSUBS nfet_06v0 ad=0.2132p pd=1.34u as=0.2132p ps=1.34u w=0.82u l=0.6u
X21 a_224_472# I VDD VNW pfet_06v0 ad=0.3782p pd=1.84u as=0.5368p ps=3.32u w=1.22u l=0.5u
X22 VSS I a_224_472# VSUBS nfet_06v0 ad=0.2132p pd=1.34u as=0.2132p ps=1.34u w=0.82u l=0.6u
X23 Z a_224_472# VSS VSUBS nfet_06v0 ad=0.2132p pd=1.34u as=0.2132p ps=1.34u w=0.82u l=0.6u
C0 I a_224_472# 0.796069f
C1 VNW a_224_472# 1.14633f
C2 VSS Z 0.70427f
C3 VDD Z 0.819024f
C4 VSS I 0.158668f
C5 VDD I 0.1311f
C6 VDD VNW 0.305516f
C7 VSS a_224_472# 0.659695f
C8 VDD a_224_472# 0.74621f
C9 Z a_224_472# 2.29481f
C10 VNW I 0.55539f
C11 VSS VSUBS 0.910368f
C12 Z VSUBS 0.18914f
C13 VDD VSUBS 0.724491f
C14 I VSUBS 1.16773f
C15 VNW VSUBS 4.79254f
C16 a_224_472# VSUBS 2.38465f
.ends

.subckt gf180mcu_fd_sc_mcu7t5v0__aoi21_1 B VDD VSS ZN A1 A2 VPW VNW a_36_472# VSUBS
X0 a_244_68# A2 VSS VSUBS nfet_06v0 ad=0.1312p pd=1.14u as=0.3608p ps=2.52u w=0.82u l=0.6u
X1 ZN A1 a_244_68# VSUBS nfet_06v0 ad=0.2569p pd=1.56u as=0.1312p ps=1.14u w=0.82u l=0.6u
X2 VDD B a_36_472# VNW pfet_06v0 ad=0.5346p pd=3.31u as=0.44955p ps=1.955u w=1.215u l=0.5u
X3 ZN A2 a_36_472# VNW pfet_06v0 ad=0.3159p pd=1.735u as=0.5346p ps=3.31u w=1.215u l=0.5u
X4 a_36_472# A1 ZN VNW pfet_06v0 ad=0.44955p pd=1.955u as=0.3159p ps=1.735u w=1.215u l=0.5u
X5 VSS B ZN VSUBS nfet_06v0 ad=0.2244p pd=1.9u as=0.2569p ps=1.56u w=0.51u l=0.6u
C0 VNW A1 0.122087f
C1 a_36_472# A1 0.104556f
C2 A2 ZN 0.248411f
C3 A1 ZN 0.245346f
C4 B A1 0.157699f
C5 VNW B 0.137038f
C6 VNW VDD 0.11216f
C7 VNW A2 0.128282f
C8 a_36_472# VDD 0.581285f
C9 ZN VSS 0.304078f
C10 a_36_472# A2 0.10395f
C11 VSS VSUBS 0.361309f
C12 VDD VSUBS 0.259458f
C13 B VSUBS 0.378232f
C14 A1 VSUBS 0.264815f
C15 A2 VSUBS 0.3189f
C16 VNW VSUBS 1.65967f
.ends

.subckt gf180mcu_fd_sc_mcu7t5v0__clkbuf_1 VSS Z I VDD VPW VNW a_36_113# VSUBS
X0 VDD I a_36_113# VNW pfet_06v0 ad=0.4015p pd=1.92u as=0.462p ps=2.98u w=1.05u l=0.5u
X1 Z a_36_113# VDD VNW pfet_06v0 ad=0.5368p pd=3.32u as=0.4015p ps=1.92u w=1.22u l=0.5u
X2 Z a_36_113# VSS VSUBS nfet_06v0 ad=0.2178p pd=1.87u as=0.153p ps=1.195u w=0.495u l=0.6u
X3 VSS I a_36_113# VSUBS nfet_06v0 ad=0.153p pd=1.195u as=0.1584p ps=1.6u w=0.36u l=0.6u
C0 VNW I 0.152645f
C1 a_36_113# VSS 0.11114f
C2 a_36_113# Z 0.191876f
C3 a_36_113# I 0.476912f
C4 VSS Z 0.136942f
C5 VNW a_36_113# 0.160792f
C6 a_36_113# VDD 0.278283f
C7 VSS VSUBS 0.283681f
C8 Z VSUBS 0.117185f
C9 VDD VSUBS 0.180237f
C10 I VSUBS 0.336876f
C11 VNW VSUBS 1.31158f
C12 a_36_113# VSUBS 0.418095f
.ends

.subckt gf180mcu_fd_sc_mcu7t5v0__fillcap_32 VDD VSS VPW VNW a_3260_375# a_36_472#
+ VSUBS
X0 VDD a_572_375# a_484_472# VNW pfet_06v0 ad=0.5368p pd=3.32u as=0.5368p ps=3.32u w=1.22u l=1u
X1 VDD a_2364_375# a_2276_472# VNW pfet_06v0 ad=0.5368p pd=3.32u as=0.5368p ps=3.32u w=1.22u l=1u
X2 a_572_375# a_484_472# VSS VSUBS nfet_06v0 ad=0.3608p pd=2.52u as=0.3608p ps=2.52u w=0.82u l=1u
X3 VDD a_1916_375# a_1828_472# VNW pfet_06v0 ad=0.5368p pd=3.32u as=0.5368p ps=3.32u w=1.22u l=1u
X4 a_124_375# a_36_472# VSS VSUBS nfet_06v0 ad=0.3608p pd=2.52u as=0.3608p ps=2.52u w=0.82u l=1u
X5 a_1916_375# a_1828_472# VSS VSUBS nfet_06v0 ad=0.3608p pd=2.52u as=0.3608p ps=2.52u w=0.82u l=1u
X6 a_1468_375# a_1380_472# VSS VSUBS nfet_06v0 ad=0.3608p pd=2.52u as=0.3608p ps=2.52u w=0.82u l=1u
X7 a_2812_375# a_2724_472# VSS VSUBS nfet_06v0 ad=0.3608p pd=2.52u as=0.3608p ps=2.52u w=0.82u l=1u
X8 VDD a_3260_375# a_3172_472# VNW pfet_06v0 ad=0.5368p pd=3.32u as=0.5368p ps=3.32u w=1.22u l=1u
X9 a_2364_375# a_2276_472# VSS VSUBS nfet_06v0 ad=0.3608p pd=2.52u as=0.3608p ps=2.52u w=0.82u l=1u
X10 VDD a_2812_375# a_2724_472# VNW pfet_06v0 ad=0.5368p pd=3.32u as=0.5368p ps=3.32u w=1.22u l=1u
X11 a_3260_375# a_3172_472# VSS VSUBS nfet_06v0 ad=0.3608p pd=2.52u as=0.3608p ps=2.52u w=0.82u l=1u
X12 VDD a_1020_375# a_932_472# VNW pfet_06v0 ad=0.5368p pd=3.32u as=0.5368p ps=3.32u w=1.22u l=1u
X13 VDD a_1468_375# a_1380_472# VNW pfet_06v0 ad=0.5368p pd=3.32u as=0.5368p ps=3.32u w=1.22u l=1u
X14 VDD a_124_375# a_36_472# VNW pfet_06v0 ad=0.5368p pd=3.32u as=0.5368p ps=3.32u w=1.22u l=1u
X15 a_1020_375# a_932_472# VSS VSUBS nfet_06v0 ad=0.3608p pd=2.52u as=0.3608p ps=2.52u w=0.82u l=1u
C0 a_1916_375# a_1828_472# 0.285629f
C1 a_484_472# a_572_375# 0.285629f
C2 a_1380_472# a_1468_375# 0.285629f
C3 a_3260_375# VNW 0.18122f
C4 a_2812_375# VDD 0.129962f
C5 a_1020_375# VNW 0.181468f
C6 VSS a_2276_472# 0.142721f
C7 VDD a_1380_472# 0.179463f
C8 a_1020_375# VSS 0.131736f
C9 a_36_472# a_124_375# 0.285629f
C10 VDD a_932_472# 0.179463f
C11 a_1916_375# VNW 0.181468f
C12 a_2364_375# VNW 0.181468f
C13 a_2364_375# a_2276_472# 0.285629f
C14 a_484_472# VDD 0.179463f
C15 a_1916_375# VSS 0.131736f
C16 VDD a_3172_472# 0.179463f
C17 VSS a_2724_472# 0.142721f
C18 VNW a_572_375# 0.181468f
C19 a_2364_375# VSS 0.131736f
C20 VDD a_1828_472# 0.179463f
C21 VSS a_572_375# 0.131736f
C22 VNW a_124_375# 0.180172f
C23 VNW a_1468_375# 0.181468f
C24 VSS a_124_375# 0.131736f
C25 VSS a_1468_375# 0.131736f
C26 VNW VDD 0.425768f
C27 a_2812_375# VNW 0.181468f
C28 VDD a_2276_472# 0.179463f
C29 a_3260_375# VDD 0.129266f
C30 a_2812_375# VSS 0.131736f
C31 a_1020_375# VDD 0.129962f
C32 VSS a_1380_472# 0.142721f
C33 VSS a_932_472# 0.142721f
C34 a_1916_375# VDD 0.129962f
C35 a_1020_375# a_932_472# 0.285629f
C36 VDD a_2724_472# 0.179463f
C37 a_2812_375# a_2724_472# 0.285629f
C38 a_2364_375# VDD 0.129962f
C39 a_3260_375# a_3172_472# 0.285629f
C40 a_484_472# VSS 0.142721f
C41 VSS a_3172_472# 0.139489f
C42 VDD a_572_375# 0.129962f
C43 a_36_472# VSS 0.142026f
C44 VSS a_1828_472# 0.142721f
C45 VDD a_124_375# 0.12673f
C46 VDD a_1468_375# 0.129962f
C47 VSS VSUBS 1.20585f
C48 VDD VSUBS 0.907304f
C49 VNW VSUBS 5.83682f
C50 a_3172_472# VSUBS 0.345058f
C51 a_2724_472# VSUBS 0.33241f
C52 a_2276_472# VSUBS 0.33241f
C53 a_1828_472# VSUBS 0.33241f
C54 a_1380_472# VSUBS 0.33241f
C55 a_932_472# VSUBS 0.33241f
C56 a_484_472# VSUBS 0.33241f
C57 a_36_472# VSUBS 0.404746f
C58 a_3260_375# VSUBS 0.233093f
C59 a_2812_375# VSUBS 0.17167f
C60 a_2364_375# VSUBS 0.17167f
C61 a_1916_375# VSUBS 0.17167f
C62 a_1468_375# VSUBS 0.17167f
C63 a_1020_375# VSUBS 0.17167f
C64 a_572_375# VSUBS 0.17167f
C65 a_124_375# VSUBS 0.185915f
.ends

.subckt gf180mcu_fd_sc_mcu7t5v0__nand3_1 A3 VDD VSS ZN A1 A2 VPW VNW VSUBS
X0 ZN A1 a_455_68# VSUBS nfet_06v0 ad=0.3608p pd=2.52u as=0.1722p ps=1.24u w=0.82u l=0.6u
X1 ZN A3 VDD VNW pfet_06v0 ad=0.2561p pd=1.505u as=0.4334p ps=2.85u w=0.985u l=0.5u
X2 VDD A2 ZN VNW pfet_06v0 ad=0.2561p pd=1.505u as=0.2561p ps=1.505u w=0.985u l=0.5u
X3 ZN A1 VDD VNW pfet_06v0 ad=0.4334p pd=2.85u as=0.2561p ps=1.505u w=0.985u l=0.5u
X4 a_271_68# A3 VSS VSUBS nfet_06v0 ad=0.1312p pd=1.14u as=0.3608p ps=2.52u w=0.82u l=0.6u
X5 a_455_68# A2 a_271_68# VSUBS nfet_06v0 ad=0.1722p pd=1.24u as=0.1312p ps=1.14u w=0.82u l=0.6u
C0 VDD ZN 0.33173f
C1 A1 ZN 0.384588f
C2 VNW A2 0.121191f
C3 VSS A2 0.104901f
C4 VNW A3 0.148237f
C5 VNW VDD 0.112537f
C6 VNW A1 0.12917f
C7 A3 A2 0.117566f
C8 A2 A1 0.133044f
C9 VSS VSUBS 0.307914f
C10 ZN VSUBS 0.133449f
C11 VDD VSUBS 0.241872f
C12 A1 VSUBS 0.287469f
C13 A2 VSUBS 0.25736f
C14 A3 VSUBS 0.326833f
C15 VNW VSUBS 1.48562f
.ends

.subckt gf180mcu_fd_sc_mcu7t5v0__nand2_1 VDD VSS ZN A1 A2 VPW VNW VSUBS
X0 ZN A2 VDD VNW pfet_06v0 ad=0.2938p pd=1.65u as=0.4972p ps=3.14u w=1.13u l=0.5u
X1 ZN A1 a_245_68# VSUBS nfet_06v0 ad=0.3608p pd=2.52u as=0.1312p ps=1.14u w=0.82u l=0.6u
X2 VDD A1 ZN VNW pfet_06v0 ad=0.4972p pd=3.14u as=0.2938p ps=1.65u w=1.13u l=0.5u
X3 a_245_68# A2 VSS VSUBS nfet_06v0 ad=0.1312p pd=1.14u as=0.3608p ps=2.52u w=0.82u l=0.6u
C0 A1 VNW 0.119756f
C1 A1 VSS 0.131667f
C2 A1 A2 0.226398f
C3 VDD ZN 0.240333f
C4 A1 ZN 0.351362f
C5 VNW A2 0.125396f
C6 VSS VSUBS 0.238729f
C7 ZN VSUBS 0.105772f
C8 VDD VSUBS 0.243067f
C9 A1 VSUBS 0.290957f
C10 A2 VSUBS 0.314823f
C11 VNW VSUBS 1.13753f
.ends

.subckt gf180mcu_fd_sc_mcu7t5v0__or2_1 VDD VSS Z A1 A2 VPW VNW VSUBS
X0 a_255_603# A1 a_67_603# VNW pfet_06v0 ad=0.1469p pd=1.085u as=0.2486p ps=2.01u w=0.565u l=0.5u
X1 Z a_67_603# VSS VSUBS nfet_06v0 ad=0.3608p pd=2.52u as=0.2288p ps=1.58u w=0.82u l=0.6u
X2 VDD A2 a_255_603# VNW pfet_06v0 ad=0.38705p pd=2.08u as=0.1469p ps=1.085u w=0.565u l=0.5u
X3 VSS A2 a_67_603# VSUBS nfet_06v0 ad=0.2288p pd=1.58u as=93.59999f ps=0.88u w=0.36u l=0.6u
X4 Z a_67_603# VDD VNW pfet_06v0 ad=0.5368p pd=3.32u as=0.38705p ps=2.08u w=1.22u l=0.5u
X5 a_67_603# A1 VSS VSUBS nfet_06v0 ad=93.59999f pd=0.88u as=0.1584p ps=1.6u w=0.36u l=0.6u
C0 Z a_67_603# 0.181586f
C1 VDD a_67_603# 0.307039f
C2 Z VSS 0.158265f
C3 VNW A1 0.220003f
C4 A2 VDD 0.147628f
C5 VNW a_67_603# 0.157241f
C6 Z VDD 0.196046f
C7 A1 a_67_603# 0.540888f
C8 A2 VNW 0.216313f
C9 VNW VDD 0.11771f
C10 VSS a_67_603# 0.250493f
C11 A2 a_67_603# 0.505374f
C12 VSS VSUBS 0.359722f
C13 Z VSUBS 0.102754f
C14 VDD VSUBS 0.233025f
C15 A2 VSUBS 0.313441f
C16 A1 VSUBS 0.39469f
C17 VNW VSUBS 1.65967f
C18 a_67_603# VSUBS 0.345683f
.ends

.subckt gf180mcu_fd_sc_mcu7t5v0__oai211_4 B C VDD VSS ZN A1 A2 VPW VNW VSUBS
X0 VDD A2 a_1612_497# VNW pfet_06v0 ad=0.3766p pd=1.815u as=0.4599p ps=1.935u w=1.095u l=0.5u
X1 VDD C ZN VNW pfet_06v0 ad=0.2561p pd=1.505u as=0.2561p ps=1.505u w=0.985u l=0.5u
X2 ZN A1 a_36_68# VSUBS nfet_06v0 ad=0.2132p pd=1.34u as=0.2132p ps=1.34u w=0.82u l=0.6u
X3 a_716_497# A1 ZN VNW pfet_06v0 ad=0.3942p pd=1.815u as=0.2847p ps=1.615u w=1.095u l=0.5u
X4 VDD A2 a_716_497# VNW pfet_06v0 ad=0.2847p pd=1.615u as=0.3942p ps=1.815u w=1.095u l=0.5u
X5 ZN C VDD VNW pfet_06v0 ad=0.2561p pd=1.505u as=0.2561p ps=1.505u w=0.985u l=0.5u
X6 a_2124_68# B a_36_68# VSUBS nfet_06v0 ad=0.1722p pd=1.24u as=0.2132p ps=1.34u w=0.82u l=0.6u
X7 VDD C ZN VNW pfet_06v0 ad=0.2561p pd=1.505u as=0.2561p ps=1.505u w=0.985u l=0.5u
X8 ZN A2 a_36_68# VSUBS nfet_06v0 ad=0.30965p pd=1.685u as=0.3608p ps=2.52u w=0.82u l=0.6u
X9 a_36_68# A2 ZN VSUBS nfet_06v0 ad=0.2132p pd=1.34u as=0.30965p ps=1.685u w=0.82u l=0.6u
X10 VSS C a_2960_68# VSUBS nfet_06v0 ad=0.2132p pd=1.34u as=0.1312p ps=1.14u w=0.82u l=0.6u
X11 VDD B ZN VNW pfet_06v0 ad=0.2561p pd=1.505u as=0.2561p ps=1.505u w=0.985u l=0.5u
X12 ZN C VDD VNW pfet_06v0 ad=0.2561p pd=1.505u as=0.2561p ps=1.505u w=0.985u l=0.5u
X13 a_36_68# A2 ZN VSUBS nfet_06v0 ad=0.2132p pd=1.34u as=0.2132p ps=1.34u w=0.82u l=0.6u
X14 a_1164_497# A2 VDD VNW pfet_06v0 ad=0.3942p pd=1.815u as=0.2847p ps=1.615u w=1.095u l=0.5u
X15 ZN B VDD VNW pfet_06v0 ad=0.2561p pd=1.505u as=0.2561p ps=1.505u w=0.985u l=0.5u
X16 VDD B ZN VNW pfet_06v0 ad=0.4334p pd=2.85u as=0.2561p ps=1.505u w=0.985u l=0.5u
X17 a_36_68# A1 ZN VSUBS nfet_06v0 ad=0.2132p pd=1.34u as=0.30965p ps=1.685u w=0.82u l=0.6u
X18 a_36_68# B a_3368_68# VSUBS nfet_06v0 ad=0.3608p pd=2.52u as=0.1312p ps=1.14u w=0.82u l=0.6u
X19 a_244_497# A2 VDD VNW pfet_06v0 ad=0.4599p pd=1.935u as=0.4818p ps=3.07u w=1.095u l=0.5u
X20 VSS C a_2124_68# VSUBS nfet_06v0 ad=0.2132p pd=1.34u as=0.1722p ps=1.24u w=0.82u l=0.6u
X21 a_36_68# A1 ZN VSUBS nfet_06v0 ad=0.2132p pd=1.34u as=0.2132p ps=1.34u w=0.82u l=0.6u
X22 ZN A1 a_1164_497# VNW pfet_06v0 ad=0.2847p pd=1.615u as=0.3942p ps=1.815u w=1.095u l=0.5u
X23 a_36_68# B a_2552_68# VSUBS nfet_06v0 ad=0.2132p pd=1.34u as=0.1312p ps=1.14u w=0.82u l=0.6u
X24 a_2552_68# C VSS VSUBS nfet_06v0 ad=0.1312p pd=1.14u as=0.2132p ps=1.34u w=0.82u l=0.6u
X25 a_1612_497# A1 ZN VNW pfet_06v0 ad=0.4599p pd=1.935u as=0.2847p ps=1.615u w=1.095u l=0.5u
X26 ZN A1 a_36_68# VSUBS nfet_06v0 ad=0.30965p pd=1.685u as=0.2132p ps=1.34u w=0.82u l=0.6u
X27 ZN A2 a_36_68# VSUBS nfet_06v0 ad=0.2132p pd=1.34u as=0.2132p ps=1.34u w=0.82u l=0.6u
X28 a_3368_68# C VSS VSUBS nfet_06v0 ad=0.1312p pd=1.14u as=0.2132p ps=1.34u w=0.82u l=0.6u
X29 ZN B VDD VNW pfet_06v0 ad=0.2561p pd=1.505u as=0.3766p ps=1.815u w=0.985u l=0.5u
X30 a_2960_68# B a_36_68# VSUBS nfet_06v0 ad=0.1312p pd=1.14u as=0.2132p ps=1.34u w=0.82u l=0.6u
X31 ZN A1 a_244_497# VNW pfet_06v0 ad=0.2847p pd=1.615u as=0.4599p ps=1.935u w=1.095u l=0.5u
C0 ZN A1 1.37575f
C1 a_36_68# C 0.105844f
C2 VDD A2 0.15752f
C3 B VNW 0.600992f
C4 A2 A1 1.73987f
C5 ZN C 0.514613f
C6 a_36_68# ZN 1.98502f
C7 a_36_68# VSS 3.64719f
C8 B C 1.73339f
C9 A2 VNW 0.590323f
C10 a_36_68# B 1.37417f
C11 VDD VNW 0.366897f
C12 a_36_68# A2 0.108262f
C13 A1 VNW 0.51833f
C14 B ZN 0.426118f
C15 ZN A2 1.2828f
C16 VDD ZN 2.06829f
C17 C VNW 0.636287f
C18 B VDD 0.100578f
C19 VSS VSUBS 1.08055f
C20 VDD VSUBS 0.846798f
C21 C VSUBS 1.06351f
C22 B VSUBS 1.11555f
C23 A1 VSUBS 1.1956f
C24 A2 VSUBS 1.16629f
C25 VNW VSUBS 5.892971f
.ends

.subckt gf180mcu_fd_sc_mcu7t5v0__clkbuf_2 Z VSS VDD I VPW VNW a_36_160# VSUBS
X0 VDD I a_36_160# VNW pfet_06v0 ad=0.458p pd=2.02u as=0.4488p ps=2.92u w=1.02u l=0.5u
X1 VSS I a_36_160# VSUBS nfet_06v0 ad=0.151p pd=1.185u as=0.1584p ps=1.6u w=0.36u l=0.6u
X2 VDD a_36_160# Z VNW pfet_06v0 ad=0.5368p pd=3.32u as=0.3782p ps=1.84u w=1.22u l=0.5u
X3 Z a_36_160# VDD VNW pfet_06v0 ad=0.3782p pd=1.84u as=0.458p ps=2.02u w=1.22u l=0.5u
X4 VSS a_36_160# Z VSUBS nfet_06v0 ad=0.2134p pd=1.85u as=0.1261p ps=1.005u w=0.485u l=0.6u
X5 Z a_36_160# VSS VSUBS nfet_06v0 ad=0.1261p pd=1.005u as=0.151p ps=1.185u w=0.485u l=0.6u
C0 VDD VNW 0.111398f
C1 a_36_160# VNW 0.302514f
C2 Z VSS 0.111496f
C3 a_36_160# VSS 0.114407f
C4 VDD Z 0.161733f
C5 a_36_160# VDD 0.31851f
C6 I VNW 0.1633f
C7 a_36_160# Z 0.426617f
C8 I VSS 0.178818f
C9 a_36_160# I 0.564508f
C10 VSS VSUBS 0.397291f
C11 VDD VSUBS 0.238155f
C12 I VSUBS 0.333888f
C13 VNW VSUBS 1.65967f
C14 a_36_160# VSUBS 0.696445f
.ends

.subckt gf180mcu_fd_sc_mcu7t5v0__fillcap_16 VDD VSS VPW VNW a_36_472# a_1468_375#
+ VSUBS
X0 VDD a_572_375# a_484_472# VNW pfet_06v0 ad=0.5368p pd=3.32u as=0.5368p ps=3.32u w=1.22u l=1u
X1 a_572_375# a_484_472# VSS VSUBS nfet_06v0 ad=0.3608p pd=2.52u as=0.3608p ps=2.52u w=0.82u l=1u
X2 a_124_375# a_36_472# VSS VSUBS nfet_06v0 ad=0.3608p pd=2.52u as=0.3608p ps=2.52u w=0.82u l=1u
X3 a_1468_375# a_1380_472# VSS VSUBS nfet_06v0 ad=0.3608p pd=2.52u as=0.3608p ps=2.52u w=0.82u l=1u
X4 VDD a_1020_375# a_932_472# VNW pfet_06v0 ad=0.5368p pd=3.32u as=0.5368p ps=3.32u w=1.22u l=1u
X5 VDD a_1468_375# a_1380_472# VNW pfet_06v0 ad=0.5368p pd=3.32u as=0.5368p ps=3.32u w=1.22u l=1u
X6 VDD a_124_375# a_36_472# VNW pfet_06v0 ad=0.5368p pd=3.32u as=0.5368p ps=3.32u w=1.22u l=1u
X7 a_1020_375# a_932_472# VSS VSUBS nfet_06v0 ad=0.3608p pd=2.52u as=0.3608p ps=2.52u w=0.82u l=1u
C0 a_124_375# VSS 0.134699f
C1 a_572_375# VNW 0.181468f
C2 a_1468_375# VNW 0.18122f
C3 VSS a_484_472# 0.148077f
C4 VSS a_932_472# 0.148077f
C5 a_1020_375# a_932_472# 0.285629f
C6 a_1020_375# VNW 0.181468f
C7 a_572_375# VSS 0.134699f
C8 a_124_375# VDD 0.12673f
C9 VSS a_36_472# 0.147381f
C10 a_1380_472# a_1468_375# 0.285629f
C11 VDD a_484_472# 0.179463f
C12 VDD a_932_472# 0.179463f
C13 a_1020_375# VSS 0.134699f
C14 a_1380_472# VSS 0.144845f
C15 VDD VNW 0.217349f
C16 a_572_375# VDD 0.129962f
C17 VDD a_1468_375# 0.129266f
C18 a_124_375# VNW 0.180172f
C19 a_124_375# a_36_472# 0.285629f
C20 a_1020_375# VDD 0.129962f
C21 a_572_375# a_484_472# 0.285629f
C22 a_1380_472# VDD 0.179463f
C23 VSS VSUBS 0.642184f
C24 VDD VSUBS 0.493288f
C25 VNW VSUBS 3.05206f
C26 a_1380_472# VSUBS 0.345058f
C27 a_932_472# VSUBS 0.33241f
C28 a_484_472# VSUBS 0.33241f
C29 a_36_472# VSUBS 0.404746f
C30 a_1468_375# VSUBS 0.233029f
C31 a_1020_375# VSUBS 0.171606f
C32 a_572_375# VSUBS 0.171606f
C33 a_124_375# VSUBS 0.185399f
.ends

.subckt gf180mcu_fd_sc_mcu7t5v0__buf_2 VSS Z I VDD VPW VNW a_36_68# VSUBS
X0 Z a_36_68# VDD VNW pfet_06v0 ad=0.3782p pd=1.84u as=0.4941p ps=2.03u w=1.22u l=0.5u
X1 VSS I a_36_68# VSUBS nfet_06v0 ad=0.2911p pd=1.53u as=0.3608p ps=2.52u w=0.82u l=0.6u
X2 Z a_36_68# VSS VSUBS nfet_06v0 ad=0.2132p pd=1.34u as=0.2911p ps=1.53u w=0.82u l=0.6u
X3 VDD I a_36_68# VNW pfet_06v0 ad=0.4941p pd=2.03u as=0.5368p ps=3.32u w=1.22u l=0.5u
X4 VSS a_36_68# Z VSUBS nfet_06v0 ad=0.3608p pd=2.52u as=0.2132p ps=1.34u w=0.82u l=0.6u
X5 VDD a_36_68# Z VNW pfet_06v0 ad=0.5368p pd=3.32u as=0.3782p ps=1.84u w=1.22u l=0.5u
C0 VNW VDD 0.114912f
C1 VSS a_36_68# 0.156367f
C2 a_36_68# Z 0.432914f
C3 I a_36_68# 0.731677f
C4 VSS Z 0.133443f
C5 VSS I 0.128735f
C6 VDD a_36_68# 0.271105f
C7 VNW a_36_68# 0.296832f
C8 VDD Z 0.172592f
C9 VNW I 0.133333f
C10 VSS VSUBS 0.338876f
C11 Z VSUBS 0.103236f
C12 VDD VSUBS 0.234026f
C13 I VSUBS 0.298844f
C14 VNW VSUBS 1.65967f
C15 a_36_68# VSUBS 0.69549f
.ends

.subckt gf180mcu_fd_sc_mcu7t5v0__mux2_2 S VDD VSS Z I0 I1 VPW VNW a_848_380# VSUBS
X0 a_1152_472# S a_124_24# VNW pfet_06v0 ad=0.1464p pd=1.46u as=0.3172p ps=1.74u w=1.22u l=0.5u
X1 a_692_68# I1 VSS VSUBS nfet_06v0 ad=98.399994f pd=1.06u as=0.2132p ps=1.34u w=0.82u l=0.6u
X2 a_124_24# S a_692_68# VSUBS nfet_06v0 ad=0.2132p pd=1.34u as=98.399994f ps=1.06u w=0.82u l=0.6u
X3 Z a_124_24# VSS VSUBS nfet_06v0 ad=0.2132p pd=1.34u as=0.3608p ps=2.52u w=0.82u l=0.6u
X4 a_848_380# S VSS VSUBS nfet_06v0 ad=0.3608p pd=2.52u as=0.2132p ps=1.34u w=0.82u l=0.6u
X5 VDD a_124_24# Z VNW pfet_06v0 ad=0.4392p pd=1.94u as=0.3477p ps=1.79u w=1.22u l=0.5u
X6 VDD I0 a_1152_472# VNW pfet_06v0 ad=0.3172p pd=1.74u as=0.1464p ps=1.46u w=1.22u l=0.5u