*SPEF "ieee 1481-1999"
*DESIGN "phase_inverter"
*DATE "11:11:11 Fri 11 11, 1111"
*VENDOR "OpenRCX"
*PROGRAM "Parallel Extraction"
*VERSION "1.0"
*DESIGN_FLOW "NAME_SCOPE LOCAL" "PIN_CAP NONE"
*DIVIDER /
*DELIMITER :
*BUS_DELIMITER []
*T_UNIT 1 NS
*C_UNIT 1 PF
*R_UNIT 1 OHM
*L_UNIT 1 HENRY

*NAME_MAP
*1 input_signal[0]
*2 input_signal[1]
*3 input_signal[2]
*4 input_signal[3]
*5 input_signal[4]
*6 input_signal[5]
*7 input_signal[6]
*8 input_signal[7]
*9 input_signal[8]
*10 input_signal[9]
*11 output_signal_minus[0]
*12 output_signal_minus[1]
*13 output_signal_minus[2]
*14 output_signal_minus[3]
*15 output_signal_minus[4]
*16 output_signal_minus[5]
*17 output_signal_minus[6]
*18 output_signal_minus[7]
*19 output_signal_minus[8]
*20 output_signal_minus[9]
*21 output_signal_plus[0]
*22 output_signal_plus[1]
*23 output_signal_plus[2]
*24 output_signal_plus[3]
*25 output_signal_plus[4]
*26 output_signal_plus[5]
*27 output_signal_plus[6]
*28 output_signal_plus[7]
*29 output_signal_plus[8]
*30 output_signal_plus[9]
*33 net1
*34 net10
*35 net11
*36 net12
*37 net13
*38 net14
*39 net15
*40 net16
*41 net17
*42 net18
*43 net19
*44 net2
*45 net20
*46 net21
*47 net22
*48 net23
*49 net24
*50 net25
*51 net26
*52 net27
*53 net28
*54 net29
*55 net3
*56 net30
*57 net4
*58 net5
*59 net6
*60 net7
*61 net8
*62 net9
*63 ANTENNA__02__I
*64 ANTENNA__04__I
*65 ANTENNA__05__I
*66 ANTENNA__06__I
*67 ANTENNA__11__I
*68 ANTENNA__13__I
*69 ANTENNA__14__I
*70 ANTENNA__15__I
*71 ANTENNA_input10_I
*72 ANTENNA_input1_I
*73 ANTENNA_input2_I
*74 ANTENNA_input3_I
*75 ANTENNA_input4_I
*76 ANTENNA_input5_I
*77 ANTENNA_input6_I
*78 ANTENNA_input7_I
*79 ANTENNA_input8_I
*80 ANTENNA_input9_I
*81 FILLER_0_0_104
*82 FILLER_0_0_108
*83 FILLER_0_0_12
*84 FILLER_0_0_142
*85 FILLER_0_0_150
*86 FILLER_0_0_28
*87 FILLER_0_0_32
*88 FILLER_0_0_36
*89 FILLER_0_0_70
*90 FILLER_0_0_74
*91 FILLER_0_0_8
*92 FILLER_0_10_101
*93 FILLER_0_10_107
*94 FILLER_0_10_12
*95 FILLER_0_10_123
*96 FILLER_0_10_125
*97 FILLER_0_10_28
*98 FILLER_0_10_32
*99 FILLER_0_10_34
*100 FILLER_0_10_37
*101 FILLER_0_10_8
*102 FILLER_0_11_136
*103 FILLER_0_11_146
*104 FILLER_0_11_150
*105 FILLER_0_11_2
*106 FILLER_0_11_66
*107 FILLER_0_11_72
*108 FILLER_0_12_101
*109 FILLER_0_12_107
*110 FILLER_0_12_12
*111 FILLER_0_12_123
*112 FILLER_0_12_125
*113 FILLER_0_12_28
*114 FILLER_0_12_32
*115 FILLER_0_12_34
*116 FILLER_0_12_37
*117 FILLER_0_12_8
*118 FILLER_0_13_104
*119 FILLER_0_13_112
*120 FILLER_0_13_2
*121 FILLER_0_13_66
*122 FILLER_0_13_72
*123 FILLER_0_14_101
*124 FILLER_0_14_107
*125 FILLER_0_14_115
*126 FILLER_0_14_119
*127 FILLER_0_14_12
*128 FILLER_0_14_121
*129 FILLER_0_14_28
*130 FILLER_0_14_32
*131 FILLER_0_14_34
*132 FILLER_0_14_37
*133 FILLER_0_14_8
*134 FILLER_0_15_2
*135 FILLER_0_15_40
*136 FILLER_0_15_56
*137 FILLER_0_15_64
*138 FILLER_0_15_68
*139 FILLER_0_15_72
*140 FILLER_0_15_8
*141 FILLER_0_16_104
*142 FILLER_0_16_108
*143 FILLER_0_16_14
*144 FILLER_0_16_150
*145 FILLER_0_16_18
*146 FILLER_0_16_36
*147 FILLER_0_16_70
*148 FILLER_0_16_74
*149 FILLER_0_1_12
*150 FILLER_0_1_148
*151 FILLER_0_1_44
*152 FILLER_0_1_60
*153 FILLER_0_1_68
*154 FILLER_0_1_72
*155 FILLER_0_1_8
*156 FILLER_0_2_101
*157 FILLER_0_2_107
*158 FILLER_0_2_123
*159 FILLER_0_2_2
*160 FILLER_0_2_34
*161 FILLER_0_2_37
*162 FILLER_0_3_104
*163 FILLER_0_3_112
*164 FILLER_0_3_12
*165 FILLER_0_3_150
*166 FILLER_0_3_44
*167 FILLER_0_3_60
*168 FILLER_0_3_68
*169 FILLER_0_3_72
*170 FILLER_0_3_8
*171 FILLER_0_4_101
*172 FILLER_0_4_107
*173 FILLER_0_4_123
*174 FILLER_0_4_2
*175 FILLER_0_4_34
*176 FILLER_0_4_37
*177 FILLER_0_5_104
*178 FILLER_0_5_112
*179 FILLER_0_5_12
*180 FILLER_0_5_44
*181 FILLER_0_5_60
*182 FILLER_0_5_68
*183 FILLER_0_5_72
*184 FILLER_0_5_8
*185 FILLER_0_6_101
*186 FILLER_0_6_107
*187 FILLER_0_6_111
*188 FILLER_0_6_113
*189 FILLER_0_6_2
*190 FILLER_0_6_34
*191 FILLER_0_6_37
*192 FILLER_0_7_104
*193 FILLER_0_7_2
*194 FILLER_0_7_66
*195 FILLER_0_7_72
*196 FILLER_0_8_101
*197 FILLER_0_8_107
*198 FILLER_0_8_115
*199 FILLER_0_8_117
*200 FILLER_0_8_12
*201 FILLER_0_8_28
*202 FILLER_0_8_32
*203 FILLER_0_8_34
*204 FILLER_0_8_37
*205 FILLER_0_8_8
*206 FILLER_0_9_104
*207 FILLER_0_9_112
*208 FILLER_0_9_148
*209 FILLER_0_9_2
*210 FILLER_0_9_66
*211 FILLER_0_9_72
*212 PHY_EDGE_ROW_0_Left_17
*213 PHY_EDGE_ROW_0_Right_0
*214 PHY_EDGE_ROW_10_Left_27
*215 PHY_EDGE_ROW_10_Right_10
*216 PHY_EDGE_ROW_11_Left_28
*217 PHY_EDGE_ROW_11_Right_11
*218 PHY_EDGE_ROW_12_Left_29
*219 PHY_EDGE_ROW_12_Right_12
*220 PHY_EDGE_ROW_13_Left_30
*221 PHY_EDGE_ROW_13_Right_13
*222 PHY_EDGE_ROW_14_Left_31
*223 PHY_EDGE_ROW_14_Right_14
*224 PHY_EDGE_ROW_15_Left_32
*225 PHY_EDGE_ROW_15_Right_15
*226 PHY_EDGE_ROW_16_Left_33
*227 PHY_EDGE_ROW_16_Right_16
*228 PHY_EDGE_ROW_1_Left_18
*229 PHY_EDGE_ROW_1_Right_1
*230 PHY_EDGE_ROW_2_Left_19
*231 PHY_EDGE_ROW_2_Right_2
*232 PHY_EDGE_ROW_3_Left_20
*233 PHY_EDGE_ROW_3_Right_3
*234 PHY_EDGE_ROW_4_Left_21
*235 PHY_EDGE_ROW_4_Right_4
*236 PHY_EDGE_ROW_5_Left_22
*237 PHY_EDGE_ROW_5_Right_5
*238 PHY_EDGE_ROW_6_Left_23
*239 PHY_EDGE_ROW_6_Right_6
*240 PHY_EDGE_ROW_7_Left_24
*241 PHY_EDGE_ROW_7_Right_7
*242 PHY_EDGE_ROW_8_Left_25
*243 PHY_EDGE_ROW_8_Right_8
*244 PHY_EDGE_ROW_9_Left_26
*245 PHY_EDGE_ROW_9_Right_9
*246 TAP_TAPCELL_ROW_0_34
*247 TAP_TAPCELL_ROW_0_35
*248 TAP_TAPCELL_ROW_0_36
*249 TAP_TAPCELL_ROW_0_37
*250 TAP_TAPCELL_ROW_10_56
*251 TAP_TAPCELL_ROW_10_57
*252 TAP_TAPCELL_ROW_11_58
*253 TAP_TAPCELL_ROW_11_59
*254 TAP_TAPCELL_ROW_12_60
*255 TAP_TAPCELL_ROW_12_61
*256 TAP_TAPCELL_ROW_13_62
*257 TAP_TAPCELL_ROW_13_63
*258 TAP_TAPCELL_ROW_14_64
*259 TAP_TAPCELL_ROW_14_65
*260 TAP_TAPCELL_ROW_15_66
*261 TAP_TAPCELL_ROW_15_67
*262 TAP_TAPCELL_ROW_16_68
*263 TAP_TAPCELL_ROW_16_69
*264 TAP_TAPCELL_ROW_16_70
*265 TAP_TAPCELL_ROW_16_71
*266 TAP_TAPCELL_ROW_1_38
*267 TAP_TAPCELL_ROW_1_39
*268 TAP_TAPCELL_ROW_2_40
*269 TAP_TAPCELL_ROW_2_41
*270 TAP_TAPCELL_ROW_3_42
*271 TAP_TAPCELL_ROW_3_43
*272 TAP_TAPCELL_ROW_4_44
*273 TAP_TAPCELL_ROW_4_45
*274 TAP_TAPCELL_ROW_5_46
*275 TAP_TAPCELL_ROW_5_47
*276 TAP_TAPCELL_ROW_6_48
*277 TAP_TAPCELL_ROW_6_49
*278 TAP_TAPCELL_ROW_7_50
*279 TAP_TAPCELL_ROW_7_51
*280 TAP_TAPCELL_ROW_8_52
*281 TAP_TAPCELL_ROW_8_53
*282 TAP_TAPCELL_ROW_9_54
*283 TAP_TAPCELL_ROW_9_55
*284 _00_
*285 _01_
*286 _02_
*287 _03_
*288 _04_
*289 _05_
*290 _06_
*291 _07_
*292 _08_
*293 _09_
*294 _10_
*295 _11_
*296 _12_
*297 _13_
*298 _14_
*299 _15_
*300 _16_
*301 _17_
*302 _18_
*303 _19_
*304 input1
*305 input10
*306 input2
*307 input3
*308 input4
*309 input5
*310 input6
*311 input7
*312 input8
*313 input9
*314 output11
*315 output12
*316 output13
*317 output14
*318 output15
*319 output16
*320 output17
*321 output18
*322 output19
*323 output20
*324 output21
*325 output22
*326 output23
*327 output24
*328 output25
*329 output26
*330 output27
*331 output28
*332 output29
*333 output30

*PORTS
input_signal[0] I
input_signal[1] I
input_signal[2] I
input_signal[3] I
input_signal[4] I
input_signal[5] I
input_signal[6] I
input_signal[7] I
input_signal[8] I
input_signal[9] I
output_signal_minus[0] O
output_signal_minus[1] O
output_signal_minus[2] O
output_signal_minus[3] O
output_signal_minus[4] O
output_signal_minus[5] O
output_signal_minus[6] O
output_signal_minus[7] O
output_signal_minus[8] O
output_signal_minus[9] O
output_signal_plus[0] O
output_signal_plus[1] O
output_signal_plus[2] O
output_signal_plus[3] O
output_signal_plus[4] O
output_signal_plus[5] O
output_signal_plus[6] O
output_signal_plus[7] O
output_signal_plus[8] O
output_signal_plus[9] O

*D_NET *1 0.00184847
*CONN
*P input_signal[0] I
*I *304:I I *D gf180mcu_fd_sc_mcu7t5v0__clkbuf_1
*I *72:I I *D gf180mcu_fd_sc_mcu7t5v0__antenna
*CAP
1 input_signal[0] 0.000618315
2 *304:I 3.90683e-05
3 *72:I 0.000202953
4 *1:9 0.000860336
5 *72:I *73:I 0
6 *72:I *2:9 6.35093e-06
7 *72:I *33:10 0.000110211
8 *304:I *33:10 1.12327e-05
*RES
1 input_signal[0] *1:9 9.232 
2 *1:9 *72:I 15.372 
3 *1:9 *304:I 4.812 
*END

*D_NET *2 0.00135775
*CONN
*P input_signal[1] I
*I *306:I I *D gf180mcu_fd_sc_mcu7t5v0__clkbuf_1
*I *73:I I *D gf180mcu_fd_sc_mcu7t5v0__antenna
*CAP
1 input_signal[1] 0.00041856
2 *306:I 5.16421e-05
3 *73:I 0.000174342
4 *2:9 0.000644544
5 *73:I *33:10 5.76352e-05
6 *2:9 *33:10 4.67771e-06
7 *72:I *73:I 0
8 *72:I *2:9 6.35093e-06
*RES
1 input_signal[1] *2:9 7.568 
2 *2:9 *73:I 15.06 
3 *2:9 *306:I 4.812 
*END

*D_NET *3 0.00160943
*CONN
*P input_signal[2] I
*I *74:I I *D gf180mcu_fd_sc_mcu7t5v0__antenna
*I *307:I I *D gf180mcu_fd_sc_mcu7t5v0__clkbuf_1
*CAP
1 input_signal[2] 0.000249461
2 *74:I 0.000370247
3 *307:I 0.000130793
4 *3:5 0.000750501
5 *74:I *44:12 5.53072e-05
6 *307:I *44:12 5.31237e-05
*RES
1 input_signal[2] *3:5 1.924 
2 *3:5 *307:I 9.936 
3 *3:5 *74:I 11.288 
*END

*D_NET *4 0.00119788
*CONN
*P input_signal[3] I
*I *75:I I *D gf180mcu_fd_sc_mcu7t5v0__antenna
*I *308:I I *D gf180mcu_fd_sc_mcu7t5v0__clkbuf_1
*CAP
1 input_signal[3] 0.000225381
2 *75:I 0.000238221
3 *308:I 6.23514e-05
4 *4:5 0.000525954
5 *75:I *44:12 0
6 *75:I *55:14 2.38773e-05
7 *75:I *57:14 9.03002e-05
8 *308:I *55:14 3.17907e-05
*RES
1 input_signal[3] *4:5 1.924 
2 *4:5 *308:I 9.52 
3 *4:5 *75:I 10.872 
*END

*D_NET *5 0.00153088
*CONN
*P input_signal[4] I
*I *309:I I *D gf180mcu_fd_sc_mcu7t5v0__clkbuf_1
*I *76:I I *D gf180mcu_fd_sc_mcu7t5v0__antenna
*CAP
1 input_signal[4] 0.000448348
2 *309:I 0
3 *76:I 0.000129166
4 *5:9 0.000577514
5 *76:I *77:I 0
6 *76:I *58:12 0.00037585
*RES
1 input_signal[4] *5:9 7.776 
2 *5:9 *76:I 15.06 
3 *5:9 *309:I 4.5 
*END

*D_NET *6 0.00129673
*CONN
*P input_signal[5] I
*I *77:I I *D gf180mcu_fd_sc_mcu7t5v0__antenna
*I *310:I I *D gf180mcu_fd_sc_mcu7t5v0__clkbuf_1
*CAP
1 input_signal[5] 0.000225381
2 *77:I 0.000258382
3 *310:I 0.000130171
4 *6:5 0.000613934
5 *77:I *59:14 5.76275e-05
6 *310:I *59:14 1.12327e-05
7 *76:I *77:I 0
*RES
1 input_signal[5] *6:5 1.924 
2 *6:5 *310:I 9.936 
3 *6:5 *77:I 11.288 
*END

*D_NET *7 0.00126642
*CONN
*P input_signal[6] I
*I *78:I I *D gf180mcu_fd_sc_mcu7t5v0__antenna
*I *311:I I *D gf180mcu_fd_sc_mcu7t5v0__clkbuf_1
*CAP
1 input_signal[6] 0.000249461
2 *78:I 0.00023915
3 *311:I 7.44434e-05
4 *7:5 0.000563055
5 *78:I *60:10 0.000140313
*RES
1 input_signal[6] *7:5 1.924 
2 *7:5 *311:I 9.52 
3 *7:5 *78:I 10.872 
*END

*D_NET *8 0.00105696
*CONN
*P input_signal[7] I
*I *79:I I *D gf180mcu_fd_sc_mcu7t5v0__antenna
*I *312:I I *D gf180mcu_fd_sc_mcu7t5v0__clkbuf_1
*CAP
1 input_signal[7] 0.00020911
2 *79:I 0.000135849
3 *312:I 0
4 *8:5 0.000344959
5 *79:I *61:10 0.000367043
*RES
1 input_signal[7] *8:5 1.924 
2 *8:5 *312:I 9 
3 *8:5 *79:I 10.56 
*END

*D_NET *9 0.00176666
*CONN
*P input_signal[8] I
*I *313:I I *D gf180mcu_fd_sc_mcu7t5v0__clkbuf_1
*I *80:I I *D gf180mcu_fd_sc_mcu7t5v0__antenna
*CAP
1 input_signal[8] 0.000363263
2 *313:I 0
3 *80:I 0.000249593
4 *9:9 0.000612856
5 *80:I *10:9 2.81522e-06
6 *80:I *62:10 2.3245e-05
7 *9:9 *71:I 0.000513523
8 *9:9 *10:9 1.36398e-06
*RES
1 input_signal[8] *9:9 7.984 
2 *9:9 *80:I 6.164 
3 *9:9 *313:I 4.5 
*END

*D_NET *10 0.00277582
*CONN
*P input_signal[9] I
*I *305:I I *D gf180mcu_fd_sc_mcu7t5v0__clkbuf_1
*I *71:I I *D gf180mcu_fd_sc_mcu7t5v0__antenna
*CAP
1 input_signal[9] 0.000738998
2 *305:I 0
3 *71:I 0.000210401
4 *10:9 0.0009494
5 *71:I *34:14 0.000359322
6 *80:I *10:9 2.81522e-06
7 *9:9 *71:I 0.000513523
8 *9:9 *10:9 1.36398e-06
*RES
1 input_signal[9] *10:9 10.064 
2 *10:9 *71:I 16.308 
3 *10:9 *305:I 4.5 
*END

*D_NET *11 0.00414766
*CONN
*P output_signal_minus[0] O
*I *314:Z O *D gf180mcu_fd_sc_mcu7t5v0__buf_8
*CAP
1 output_signal_minus[0] 0.00203789
2 *314:Z 0.00203789
3 output_signal_minus[0] output_signal_minus[9] 7.18709e-05
*RES
1 *314:Z output_signal_minus[0] 26.212 
*END

*D_NET *12 0.00227212
*CONN
*P output_signal_minus[1] O
*I *315:Z O *D gf180mcu_fd_sc_mcu7t5v0__buf_8
*CAP
1 output_signal_minus[1] 0.000755591
2 *315:Z 0.000755591
3 output_signal_minus[1] output_signal_minus[2] 2.97684e-05
4 output_signal_minus[1] output_signal_plus[1] 0
5 output_signal_minus[1] *321:I 0.000214037
6 output_signal_minus[1] *326:I 7.6403e-05
7 output_signal_minus[1] *328:I 1.07369e-05
8 output_signal_minus[1] *58:20 0.00042999
*RES
1 *315:Z output_signal_minus[1] 15.188 
*END

*D_NET *13 0.00207004
*CONN
*P output_signal_minus[2] O
*I *316:Z O *D gf180mcu_fd_sc_mcu7t5v0__buf_8
*CAP
1 output_signal_minus[2] 0.000872431
2 *316:Z 0.000872431
3 output_signal_minus[2] output_signal_minus[3] 0
4 output_signal_minus[2] *296:I 0.000124423
5 output_signal_minus[2] *320:I 1.91527e-05
6 output_signal_minus[2] *321:I 6.062e-05
7 output_signal_minus[2] *57:33 1.13158e-05
8 output_signal_minus[2] *58:20 7.98931e-05
9 output_signal_minus[1] output_signal_minus[2] 2.97684e-05
*RES
1 *316:Z output_signal_minus[2] 14.668 
*END

*D_NET *14 0.00182502
*CONN
*P output_signal_minus[3] O
*I *317:Z O *D gf180mcu_fd_sc_mcu7t5v0__buf_8
*CAP
1 output_signal_minus[3] 0.000768145
2 *317:Z 0.000768145
3 output_signal_minus[3] output_signal_minus[4] 0
4 output_signal_minus[3] *296:I 7.87395e-06
5 output_signal_minus[3] *321:I 0.000103933
6 output_signal_minus[3] *57:33 0.000115704
7 output_signal_minus[3] *58:26 6.12198e-05
8 output_signal_minus[2] output_signal_minus[3] 0
*RES
1 *317:Z output_signal_minus[3] 14.668 
*END

*D_NET *15 0.00279639
*CONN
*P output_signal_minus[4] O
*I *318:Z O *D gf180mcu_fd_sc_mcu7t5v0__buf_8
*CAP
1 output_signal_minus[4] 0.00103574
2 *318:Z 0.00103574
3 output_signal_minus[4] output_signal_minus[5] 0
4 output_signal_minus[4] *286:I 0.00036872
5 output_signal_minus[4] *324:I 0.00033778
6 output_signal_minus[4] *44:18 1.84122e-05
7 output_signal_minus[3] output_signal_minus[4] 0
*RES
1 *318:Z output_signal_minus[4] 16.436 
*END

*D_NET *16 0.00244006
*CONN
*P output_signal_minus[5] O
*I *319:Z O *D gf180mcu_fd_sc_mcu7t5v0__buf_8
*CAP
1 output_signal_minus[5] 0.000646046
2 *319:Z 0.000646046
3 output_signal_minus[5] output_signal_minus[6] 0
4 output_signal_minus[5] *65:I 0.000605853
5 output_signal_minus[5] *286:I 6.82741e-05
6 output_signal_minus[5] *320:I 5.45754e-05
7 output_signal_minus[5] *321:I 0.000419265
8 output_signal_minus[4] output_signal_minus[5] 0
*RES
1 *319:Z output_signal_minus[5] 14.98 
*END

*D_NET *17 0.00261783
*CONN
*P output_signal_minus[6] O
*I *320:Z O *D gf180mcu_fd_sc_mcu7t5v0__buf_8
*CAP
1 output_signal_minus[6] 0.00105289
2 *320:Z 0.00105289
3 output_signal_minus[6] output_signal_minus[7] 0
4 output_signal_minus[6] output_signal_minus[8] 0
5 output_signal_minus[6] *65:I 0
6 output_signal_minus[6] *314:I 6.40114e-06
7 output_signal_minus[6] *324:I 0.000505648
8 output_signal_minus[5] output_signal_minus[6] 0
*RES
1 *320:Z output_signal_minus[6] 16.436 
*END

*D_NET *18 0.00306435
*CONN
*P output_signal_minus[7] O
*I *321:Z O *D gf180mcu_fd_sc_mcu7t5v0__buf_8
*CAP
1 output_signal_minus[7] 0.000832541
2 *321:Z 0.000832541
3 output_signal_minus[7] output_signal_minus[8] 0.00033778
4 output_signal_minus[7] *294:I 9.00616e-05
5 output_signal_minus[7] *314:I 0.000554021
6 output_signal_minus[7] *324:I 6.82523e-05
7 output_signal_minus[7] *33:10 0.000270167
8 output_signal_minus[7] *45:14 7.89812e-05
9 output_signal_minus[6] output_signal_minus[7] 0
*RES
1 *321:Z output_signal_minus[7] 17.892 
*END

*D_NET *19 0.00445153
*CONN
*P output_signal_minus[8] O
*I *322:Z O *D gf180mcu_fd_sc_mcu7t5v0__buf_8
*CAP
1 output_signal_minus[8] 0.00137017
2 *322:Z 0.00137017
3 output_signal_minus[8] output_signal_minus[9] 0
4 output_signal_minus[8] *65:I 0.000346997
5 output_signal_minus[8] *324:I 5.47431e-06
6 output_signal_minus[8] *45:14 0.00102094
7 output_signal_minus[6] output_signal_minus[8] 0
8 output_signal_minus[7] output_signal_minus[8] 0.00033778
*RES
1 *322:Z output_signal_minus[8] 22.988 
*END

*D_NET *20 0.00378774
*CONN
*P output_signal_minus[9] O
*I *323:Z O *D gf180mcu_fd_sc_mcu7t5v0__buf_8
*CAP
1 output_signal_minus[9] 0.00185793
2 *323:Z 0.00185793
3 output_signal_minus[0] output_signal_minus[9] 7.18709e-05
4 output_signal_minus[8] output_signal_minus[9] 0
*RES
1 *323:Z output_signal_minus[9] 25.38 
*END

*D_NET *21 0.00294601
*CONN
*P output_signal_plus[0] O
*I *324:Z O *D gf180mcu_fd_sc_mcu7t5v0__buf_8
*CAP
1 output_signal_plus[0] 0.00147301
2 *324:Z 0.00147301
3 output_signal_plus[0] output_signal_plus[9] 0
*RES
1 *324:Z output_signal_plus[0] 21.22 
*END

*D_NET *22 0.00168095
*CONN
*P output_signal_plus[1] O
*I *325:Z O *D gf180mcu_fd_sc_mcu7t5v0__buf_8
*CAP
1 output_signal_plus[1] 0.000762712
2 *325:Z 0.000762712
3 output_signal_plus[1] output_signal_plus[2] 0
4 output_signal_plus[1] *59:14 0
5 output_signal_plus[1] *59:20 0.000155524
6 output_signal_minus[1] output_signal_plus[1] 0
*RES
1 *325:Z output_signal_plus[1] 14.044 
*END

*D_NET *23 0.00237331
*CONN
*P output_signal_plus[2] O
*I *326:Z O *D gf180mcu_fd_sc_mcu7t5v0__buf_8
*CAP
1 output_signal_plus[2] 0.000819245
2 *326:Z 0.000819245
3 output_signal_plus[2] output_signal_plus[3] 0
4 output_signal_plus[2] *321:I 0.000251851
5 output_signal_plus[2] *328:I 0.000127824
6 output_signal_plus[2] *59:14 0.000278388
7 output_signal_plus[2] *59:20 7.6761e-05
8 output_signal_plus[1] output_signal_plus[2] 0
*RES
1 *326:Z output_signal_plus[2] 15.5 
*END

*D_NET *24 0.00166352
*CONN
*P output_signal_plus[3] O
*I *327:Z O *D gf180mcu_fd_sc_mcu7t5v0__buf_8
*CAP
1 output_signal_plus[3] 0.000437699
2 *327:Z 0.000437699
3 output_signal_plus[3] output_signal_plus[4] 0
4 output_signal_plus[3] *66:I 0.000346997
5 output_signal_plus[3] *329:I 0.000428493
6 output_signal_plus[3] *45:14 1.26329e-05
7 output_signal_plus[2] output_signal_plus[3] 0
*RES
1 *327:Z output_signal_plus[3] 12.692 
*END

*D_NET *25 0.00129701
*CONN
*P output_signal_plus[4] O
*I *328:Z O *D gf180mcu_fd_sc_mcu7t5v0__buf_8
*CAP
1 output_signal_plus[4] 0.000523418
2 *328:Z 0.000523418
3 output_signal_plus[4] output_signal_plus[5] 0
4 output_signal_plus[4] *321:I 0.000131391
5 output_signal_plus[4] *60:10 0.000118787
6 output_signal_plus[3] output_signal_plus[4] 0
*RES
1 *328:Z output_signal_plus[4] 13.004 
*END

*D_NET *26 0.00150108
*CONN
*P output_signal_plus[5] O
*I *329:Z O *D gf180mcu_fd_sc_mcu7t5v0__buf_8
*CAP
1 output_signal_plus[5] 0.000629012
2 *329:Z 0.000629012
3 output_signal_plus[5] output_signal_plus[6] 0
4 output_signal_plus[5] *292:I 5.61752e-05
5 output_signal_plus[5] *321:I 0.000131391
6 output_signal_plus[5] *61:10 5.54907e-05
7 output_signal_plus[4] output_signal_plus[5] 0
*RES
1 *329:Z output_signal_plus[5] 13.732 
*END

*D_NET *27 0.00246963
*CONN
*P output_signal_plus[6] O
*I *330:Z O *D gf180mcu_fd_sc_mcu7t5v0__buf_8
*CAP
1 output_signal_plus[6] 0.000982946
2 *330:Z 0.000982946
3 output_signal_plus[6] output_signal_plus[7] 0
4 output_signal_plus[6] *292:I 0.000106025
5 output_signal_plus[6] *302:I 8.47678e-05
6 output_signal_plus[6] *331:I 7.72884e-05
7 output_signal_plus[6] *61:10 0.000235656
8 output_signal_plus[5] output_signal_plus[6] 0
*RES
1 *330:Z output_signal_plus[6] 16.436 
*END

*D_NET *28 0.00477517
*CONN
*P output_signal_plus[7] O
*I *331:Z O *D gf180mcu_fd_sc_mcu7t5v0__buf_8
*CAP
1 output_signal_plus[7] 0.00109332
2 *331:Z 0.00109332
3 output_signal_plus[7] output_signal_plus[8] 0
4 output_signal_plus[7] *293:I 0.000174141
5 output_signal_plus[7] *302:I 0.000444651
6 output_signal_plus[7] *322:I 6.69436e-05
7 output_signal_plus[7] *324:I 0.000349288
8 output_signal_plus[7] *331:I 3.52832e-05
9 output_signal_plus[7] *332:I 0.000937368
10 output_signal_plus[7] *34:14 0.000580861
11 output_signal_plus[6] output_signal_plus[7] 0
*RES
1 *331:Z output_signal_plus[7] 20.804 
*END

*D_NET *29 0.00385303
*CONN
*P output_signal_plus[8] O
*I *332:Z O *D gf180mcu_fd_sc_mcu7t5v0__buf_8
*CAP
1 output_signal_plus[8] 0.00166951
2 *332:Z 0.00166951
3 output_signal_plus[8] output_signal_plus[9] 0
4 output_signal_plus[8] *332:I 0
5 output_signal_plus[8] *333:I 0.000505242
6 output_signal_plus[8] *34:14 8.77606e-06
7 output_signal_plus[7] output_signal_plus[8] 0
*RES
1 *332:Z output_signal_plus[8] 23.092 
*END

*D_NET *30 0.0038926
*CONN
*P output_signal_plus[9] O
*I *333:Z O *D gf180mcu_fd_sc_mcu7t5v0__buf_8
*CAP
1 output_signal_plus[9] 0.0019463
2 *333:Z 0.0019463
3 output_signal_plus[0] output_signal_plus[9] 0
4 output_signal_plus[8] output_signal_plus[9] 0
*RES
1 *333:Z output_signal_plus[9] 25.796 
*END

*D_NET *33 0.0110307
*CONN
*I *294:I I *D gf180mcu_fd_sc_mcu7t5v0__buf_1
*I *285:I I *D gf180mcu_fd_sc_mcu7t5v0__clkinv_1
*I *304:Z O *D gf180mcu_fd_sc_mcu7t5v0__clkbuf_1
*CAP
1 *294:I 0.000256445
2 *285:I 0
3 *304:Z 0.00310753
4 *33:10 0.00336398
5 *294:I *314:I 1.66971e-05
6 *294:I *45:14 0.000439787
7 *33:10 *314:I 4.48148e-05
8 *33:10 *45:14 0.00325744
9 output_signal_minus[7] *294:I 9.00616e-05
10 output_signal_minus[7] *33:10 0.000270167
11 *72:I *33:10 0.000110211
12 *73:I *33:10 5.76352e-05
13 *304:I *33:10 1.12327e-05
14 *2:9 *33:10 4.67771e-06
*RES
1 *304:Z *33:10 37.496 
2 *33:10 *285:I 9 
3 *33:10 *294:I 11.496 
*END

*D_NET *34 0.0134878
*CONN
*I *284:I I *D gf180mcu_fd_sc_mcu7t5v0__inv_1
*I *303:I I *D gf180mcu_fd_sc_mcu7t5v0__clkbuf_1
*I *305:Z O *D gf180mcu_fd_sc_mcu7t5v0__clkbuf_1
*CAP
1 *284:I 0.000294008
2 *303:I 3.8839e-05
3 *305:Z 0.00206804
4 *34:14 0.00240089
5 *284:I *302:I 0
6 *284:I *45:14 0
7 *303:I *333:I 3.22108e-05
8 *34:14 *332:I 0.00218398
9 *34:14 *333:I 0.00366388
10 *34:14 *62:10 0.00185696
11 output_signal_plus[7] *34:14 0.000580861
12 output_signal_plus[8] *34:14 8.77606e-06
13 *71:I *34:14 0.000359322
*RES
1 *305:Z *34:14 43.348 
2 *34:14 *303:I 4.812 
3 *34:14 *284:I 6.372 
*END

*D_NET *35 0.00270307
*CONN
*I *314:I I *D gf180mcu_fd_sc_mcu7t5v0__buf_8
*I *285:ZN O *D gf180mcu_fd_sc_mcu7t5v0__clkinv_1
*CAP
1 *314:I 0.000707384
2 *285:ZN 0.000707384
3 *314:I *321:I 0.000406972
4 *314:I *324:I 0.0002594
5 output_signal_minus[6] *314:I 6.40114e-06
6 output_signal_minus[7] *314:I 0.000554021
7 *294:I *314:I 1.66971e-05
8 *33:10 *314:I 4.48148e-05
*RES
1 *285:ZN *314:I 24.864 
*END

*D_NET *36 0.000683747
*CONN
*I *315:I I *D gf180mcu_fd_sc_mcu7t5v0__buf_8
*I *286:ZN O *D gf180mcu_fd_sc_mcu7t5v0__clkinv_1
*CAP
1 *315:I 5.24774e-05
2 *286:ZN 5.24774e-05
3 *315:I *319:I 0.000419276
4 *315:I *45:14 0.000159517
*RES
1 *286:ZN *315:I 10.144 
*END

*D_NET *37 0.000353004
*CONN
*I *316:I I *D gf180mcu_fd_sc_mcu7t5v0__buf_8
*I *287:ZN O *D gf180mcu_fd_sc_mcu7t5v0__clkinv_1
*CAP
1 *316:I 0.000149214
2 *287:ZN 0.000149214
3 *316:I *322:I 5.45754e-05
*RES
1 *287:ZN *316:I 10.144 
*END

*D_NET *38 0.00089504
*CONN
*I *317:I I *D gf180mcu_fd_sc_mcu7t5v0__buf_8
*I *288:ZN O *D gf180mcu_fd_sc_mcu7t5v0__clkinv_1
*CAP
1 *317:I 3.13201e-05
2 *288:ZN 3.13201e-05
3 *317:I *319:I 0.0004162
4 *317:I *57:33 0.0004162
*RES
1 *288:ZN *317:I 10.144 
*END

*D_NET *39 0.0022087
*CONN
*I *318:I I *D gf180mcu_fd_sc_mcu7t5v0__buf_8
*I *289:ZN O *D gf180mcu_fd_sc_mcu7t5v0__clkinv_1
*CAP
1 *318:I 0.000241096
2 *289:ZN 0.000241096
3 *318:I *65:I 0.000531148
4 *318:I *286:I 0.000139799
5 *318:I *320:I 0.000110135
6 *318:I *321:I 0.000945427
*RES
1 *289:ZN *318:I 21.952 
*END

*D_NET *40 0.00413285
*CONN
*I *319:I I *D gf180mcu_fd_sc_mcu7t5v0__buf_8
*I *290:ZN O *D gf180mcu_fd_sc_mcu7t5v0__clkinv_1
*CAP
1 *319:I 0.000491298
2 *290:ZN 0.000491298
3 *319:I *64:I 0.000278086
4 *319:I *286:I 0.000510012
5 *319:I *45:14 0.000538725
6 *319:I *57:33 0.000820416
7 *319:I *58:26 0.000167539
8 *315:I *319:I 0.000419276
9 *317:I *319:I 0.0004162
*RES
1 *290:ZN *319:I 17.112 
*END

*D_NET *41 0.00611617
*CONN
*I *320:I I *D gf180mcu_fd_sc_mcu7t5v0__buf_8
*I *291:ZN O *D gf180mcu_fd_sc_mcu7t5v0__inv_1
*CAP
1 *320:I 0.00189272
2 *291:ZN 0.00189272
3 *320:I *321:I 7.12587e-05
4 *320:I *324:I 0.0019732
5 *320:I *59:14 0.000102407
6 *320:I *60:10 0
7 output_signal_minus[2] *320:I 1.91527e-05
8 output_signal_minus[5] *320:I 5.45754e-05
9 *318:I *320:I 0.000110135
*RES
1 *291:ZN *320:I 35.16 
*END

*D_NET *42 0.00839741
*CONN
*I *321:I I *D gf180mcu_fd_sc_mcu7t5v0__buf_8
*I *292:ZN O *D gf180mcu_fd_sc_mcu7t5v0__inv_1
*CAP
1 *321:I 0.00265439
2 *292:ZN 0.00265439
3 *321:I *64:I 0
4 *321:I *291:I 4.79815e-05
5 *321:I *296:I 0
6 *321:I *300:I 5.19755e-05
7 *321:I *324:I 0
8 *321:I *326:I 5.72417e-05
9 *321:I *328:I 0.000117213
10 *321:I *58:26 2.21695e-05
11 *321:I *59:14 4.61227e-05
12 *321:I *60:10 9.78351e-06
13 *321:I *61:10 0
14 output_signal_minus[1] *321:I 0.000214037
15 output_signal_minus[2] *321:I 6.062e-05
16 output_signal_minus[3] *321:I 0.000103933
17 output_signal_minus[5] *321:I 0.000419265
18 output_signal_plus[2] *321:I 0.000251851
19 output_signal_plus[4] *321:I 0.000131391
20 output_signal_plus[5] *321:I 0.000131391
21 *314:I *321:I 0.000406972
22 *318:I *321:I 0.000945427
23 *320:I *321:I 7.12587e-05
*RES
1 *292:ZN *321:I 40.256 
*END

*D_NET *43 0.00622551
*CONN
*I *322:I I *D gf180mcu_fd_sc_mcu7t5v0__buf_8
*I *293:ZN O *D gf180mcu_fd_sc_mcu7t5v0__inv_1
*CAP
1 *322:I 0.00201529
2 *293:ZN 0.00201529
3 *322:I *65:I 8.21146e-06
4 *322:I *295:I 0.000159926
5 *322:I *297:I 3.22108e-05
6 *322:I *324:I 0
7 *322:I *325:I 0.00067298
8 *322:I *327:I 0.000139662
9 *322:I *44:18 0.0010451
10 *322:I *57:14 1.53331e-05
11 *322:I *58:12 0
12 *322:I *58:20 0
13 output_signal_plus[7] *322:I 6.69436e-05
14 *316:I *322:I 5.45754e-05
*RES
1 *293:ZN *322:I 25.848 
*END

*D_NET *44 0.0140389
*CONN
*I *286:I I *D gf180mcu_fd_sc_mcu7t5v0__clkinv_1
*I *63:I I *D gf180mcu_fd_sc_mcu7t5v0__antenna
*I *295:I I *D gf180mcu_fd_sc_mcu7t5v0__clkbuf_1
*I *67:I I *D gf180mcu_fd_sc_mcu7t5v0__antenna
*I *306:Z O *D gf180mcu_fd_sc_mcu7t5v0__clkbuf_1
*CAP
1 *286:I 0.000606757
2 *63:I 0
3 *295:I 2.58881e-05
4 *67:I 0.000112516
5 *306:Z 0.00373797
6 *44:18 0.000761714
7 *44:14 0.00062331
8 *44:12 0.00434473
9 *67:I *58:20 6.31301e-05
10 *286:I *65:I 0.00015209
11 *286:I *45:14 0.00065147
12 *295:I *327:I 3.17907e-05
13 *44:12 *55:14 0.000265501
14 *44:12 *57:14 0
15 *44:18 *297:I 3.22108e-05
16 *44:18 *324:I 0
17 *44:18 *327:I 0.000211163
18 output_signal_minus[4] *286:I 0.00036872
19 output_signal_minus[4] *44:18 1.84122e-05
20 output_signal_minus[5] *286:I 6.82741e-05
21 *74:I *44:12 5.53072e-05
22 *75:I *44:12 0
23 *307:I *44:12 5.31237e-05
24 *318:I *286:I 0.000139799
25 *319:I *286:I 0.000510012
26 *322:I *295:I 0.000159926
27 *322:I *44:18 0.0010451
*RES
1 *306:Z *44:12 37.392 
2 *44:12 *44:14 4.5 
3 *44:14 *44:18 6.24 
4 *44:18 *67:I 14.436 
5 *44:18 *295:I 5.02 
6 *44:14 *63:I 4.5 
7 *44:12 *286:I 16.28 
*END

*D_NET *45 0.0145445
*CONN
*I *323:I I *D gf180mcu_fd_sc_mcu7t5v0__buf_8
*I *284:ZN O *D gf180mcu_fd_sc_mcu7t5v0__inv_1
*CAP
1 *323:I 0
2 *284:ZN 0.00299644
3 *45:14 0.00299644
4 *45:14 *64:I 0.000213875
5 *45:14 *66:I 0.000356496
6 *45:14 *290:I 0.00110841
7 *45:14 *292:I 0.000488468
8 *45:14 *301:I 1.77685e-05
9 *45:14 *329:I 0.000178421
10 *45:14 *58:26 2.87226e-05
11 output_signal_minus[7] *45:14 7.89812e-05
12 output_signal_minus[8] *45:14 0.00102094
13 output_signal_plus[3] *45:14 1.26329e-05
14 *284:I *45:14 0
15 *286:I *45:14 0.00065147
16 *294:I *45:14 0.000439787
17 *315:I *45:14 0.000159517
18 *319:I *45:14 0.000538725
19 *33:10 *45:14 0.00325744
*RES
1 *284:ZN *45:14 46.26 
2 *45:14 *323:I 4.5 
*END

*D_NET *46 0.00905222
*CONN
*I *324:I I *D gf180mcu_fd_sc_mcu7t5v0__buf_8
*I *294:Z O *D gf180mcu_fd_sc_mcu7t5v0__buf_1
*CAP
1 *324:I 0.0024755
2 *294:Z 0.0024755
3 *324:I *65:I 7.27179e-05
4 *324:I *327:I 0.000529464
5 *324:I *331:I 0
6 output_signal_minus[4] *324:I 0.00033778
7 output_signal_minus[6] *324:I 0.000505648
8 output_signal_minus[7] *324:I 6.82523e-05
9 output_signal_minus[8] *324:I 5.47431e-06
10 output_signal_plus[7] *324:I 0.000349288
11 *314:I *324:I 0.0002594
12 *320:I *324:I 0.0019732
13 *321:I *324:I 0
14 *322:I *324:I 0
15 *44:18 *324:I 0
*RES
1 *294:Z *324:I 42.336 
*END

*D_NET *47 0.00106071
*CONN
*I *325:I I *D gf180mcu_fd_sc_mcu7t5v0__buf_8
*I *295:Z O *D gf180mcu_fd_sc_mcu7t5v0__clkbuf_1
*CAP
1 *325:I 0.000193863
2 *295:Z 0.000193863
3 *322:I *325:I 0.00067298
*RES
1 *295:Z *325:I 11.288 
*END

*D_NET *48 0.0020103
*CONN
*I *326:I I *D gf180mcu_fd_sc_mcu7t5v0__buf_8
*I *296:Z O *D gf180mcu_fd_sc_mcu7t5v0__clkbuf_1
*CAP
1 *326:I 0.000492849
2 *296:Z 0.000492849
3 *326:I *290:I 4.97775e-05
4 *326:I *296:I 0.000102867
5 *326:I *328:I 0.000165701
6 *326:I *329:I 0
7 *326:I *58:26 0.000572615
8 output_signal_minus[1] *326:I 7.6403e-05
9 *321:I *326:I 5.72417e-05
*RES
1 *296:Z *326:I 13.992 
*END

*D_NET *49 0.00224341
*CONN
*I *327:I I *D gf180mcu_fd_sc_mcu7t5v0__buf_8
*I *297:Z O *D gf180mcu_fd_sc_mcu7t5v0__clkbuf_1
*CAP
1 *327:I 0.000665667
2 *297:Z 0.000665667
3 *295:I *327:I 3.17907e-05
4 *322:I *327:I 0.000139662
5 *324:I *327:I 0.000529464
6 *44:18 *327:I 0.000211163
*RES
1 *297:Z *327:I 16.072 
*END

*D_NET *50 0.00312126
*CONN
*I *328:I I *D gf180mcu_fd_sc_mcu7t5v0__buf_8
*I *298:Z O *D gf180mcu_fd_sc_mcu7t5v0__clkbuf_1
*CAP
1 *328:I 0.00068115
2 *298:Z 0.00068115
3 *328:I *66:I 8.16884e-06
4 *328:I *290:I 2.83206e-05
5 *328:I *291:I 0.000419265
6 *328:I *300:I 0.000113027
7 *328:I *329:I 0.000597311
8 *328:I *59:14 0.000171397
9 output_signal_minus[1] *328:I 1.07369e-05
10 output_signal_plus[2] *328:I 0.000127824
11 *321:I *328:I 0.000117213
12 *326:I *328:I 0.000165701
*RES
1 *298:Z *328:I 16.904 
*END

*D_NET *51 0.00288922
*CONN
*I *329:I I *D gf180mcu_fd_sc_mcu7t5v0__buf_8
*I *299:Z O *D gf180mcu_fd_sc_mcu7t5v0__clkbuf_1
*CAP
1 *329:I 0.000606016
2 *299:Z 0.000606016
3 *329:I *66:I 0.000207716
4 *329:I *292:I 0.000103468
5 *329:I *300:I 0.000111435
6 *329:I *301:I 1.07369e-05
7 *329:I *330:I 3.96072e-05
8 *329:I *331:I 0
9 output_signal_plus[3] *329:I 0.000428493
10 *326:I *329:I 0
11 *328:I *329:I 0.000597311
12 *45:14 *329:I 0.000178421
*RES
1 *299:Z *329:I 16.28 
*END

*D_NET *52 0.00118847
*CONN
*I *330:I I *D gf180mcu_fd_sc_mcu7t5v0__buf_8
*I *300:Z O *D gf180mcu_fd_sc_mcu7t5v0__clkbuf_1
*CAP
1 *330:I 0.000453946
2 *300:Z 0.000453946
3 *330:I *301:I 0.000130838
4 *330:I *331:I 0.000110135
5 *329:I *330:I 3.96072e-05
*RES
1 *300:Z *330:I 12.848 
*END

*D_NET *53 0.00180018
*CONN
*I *331:I I *D gf180mcu_fd_sc_mcu7t5v0__buf_8
*I *301:Z O *D gf180mcu_fd_sc_mcu7t5v0__clkbuf_1
*CAP
1 *331:I 0.000605213