*SPEF "ieee 1481-1999"
*DESIGN "phase_inverter"
*DATE "11:11:11 Fri 11 11, 1111"
*VENDOR "OpenRCX"
*PROGRAM "Parallel Extraction"
*VERSION "1.0"
*DESIGN_FLOW "NAME_SCOPE LOCAL" "PIN_CAP NONE"
*DIVIDER /
*DELIMITER :
*BUS_DELIMITER []
*T_UNIT 1 NS
*C_UNIT 1 PF
*R_UNIT 1 OHM
*L_UNIT 1 HENRY

*NAME_MAP
*1 input_signal[0]
*2 input_signal[1]
*3 input_signal[2]
*4 input_signal[3]
*5 input_signal[4]
*6 input_signal[5]
*7 input_signal[6]
*8 input_signal[7]
*9 input_signal[8]
*10 input_signal[9]
*11 output_signal_minus[0]
*12 output_signal_minus[1]
*13 output_signal_minus[2]
*14 output_signal_minus[3]
*15 output_signal_minus[4]
*16 output_signal_minus[5]
*17 output_signal_minus[6]
*18 output_signal_minus[7]
*19 output_signal_minus[8]
*20 output_signal_minus[9]
*21 output_signal_plus[0]
*22 output_signal_plus[1]
*23 output_signal_plus[2]
*24 output_signal_plus[3]
*25 output_signal_plus[4]
*26 output_signal_plus[5]
*27 output_signal_plus[6]
*28 output_signal_plus[7]
*29 output_signal_plus[8]
*30 output_signal_plus[9]
*33 net1
*34 net10
*35 net11
*36 net12
*37 net13
*38 net14
*39 net15
*40 net16
*41 net17
*42 net18
*43 net19
*44 net2
*45 net20
*46 net21
*47 net22
*48 net23
*49 net24
*50 net25
*51 net26
*52 net27
*53 net28
*54 net29
*55 net3
*56 net30
*57 net4
*58 net5
*59 net6
*60 net7
*61 net8
*62 net9
*63 ANTENNA__02__I
*64 ANTENNA__04__I
*65 ANTENNA__05__I
*66 ANTENNA__06__I
*67 ANTENNA__11__I
*68 ANTENNA__13__I
*69 ANTENNA__14__I
*70 ANTENNA__15__I
*71 ANTENNA_input10_I
*72 ANTENNA_input1_I
*73 ANTENNA_input2_I
*74 ANTENNA_input3_I
*75 ANTENNA_input4_I
*76 ANTENNA_input5_I
*77 ANTENNA_input6_I
*78 ANTENNA_input7_I
*79 ANTENNA_input8_I
*80 ANTENNA_input9_I
*81 FILLER_0_0_104
*82 FILLER_0_0_108
*83 FILLER_0_0_12
*84 FILLER_0_0_142
*85 FILLER_0_0_150
*86 FILLER_0_0_28
*87 FILLER_0_0_32
*88 FILLER_0_0_36
*89 FILLER_0_0_70
*90 FILLER_0_0_74
*91 FILLER_0_0_8
*92 FILLER_0_10_101
*93 FILLER_0_10_107
*94 FILLER_0_10_12
*95 FILLER_0_10_123
*96 FILLER_0_10_125
*97 FILLER_0_10_28
*98 FILLER_0_10_32
*99 FILLER_0_10_34
*100 FILLER_0_10_37
*101 FILLER_0_10_8
*102 FILLER_0_11_136
*103 FILLER_0_11_146
*104 FILLER_0_11_150
*105 FILLER_0_11_2
*106 FILLER_0_11_66
*107 FILLER_0_11_72
*108 FILLER_0_12_101
*109 FILLER_0_12_107
*110 FILLER_0_12_12
*111 FILLER_0_12_123
*112 FILLER_0_12_125
*113 FILLER_0_12_28
*114 FILLER_0_12_32
*115 FILLER_0_12_34
*116 FILLER_0_12_37
*117 FILLER_0_12_8
*118 FILLER_0_13_104
*119 FILLER_0_13_112
*120 FILLER_0_13_2
*121 FILLER_0_13_66
*122 FILLER_0_13_72
*123 FILLER_0_14_101
*124 FILLER_0_14_107
*125 FILLER_0_14_115
*126 FILLER_0_14_119
*127 FILLER_0_14_12
*128 FILLER_0_14_121
*129 FILLER_0_14_28
*130 FILLER_0_14_32
*131 FILLER_0_14_34
*132 FILLER_0_14_37
*133 FILLER_0_14_8
*134 FILLER_0_15_2
*135 FILLER_0_15_40
*136 FILLER_0_15_56
*137 FILLER_0_15_64
*138 FILLER_0_15_68
*139 FILLER_0_15_72
*140 FILLER_0_15_8
*141 FILLER_0_16_104
*142 FILLER_0_16_108
*143 FILLER_0_16_14
*144 FILLER_0_16_150
*145 FILLER_0_16_18
*146 FILLER_0_16_36
*147 FILLER_0_16_70
*148 FILLER_0_16_74
*149 FILLER_0_1_12
*150 FILLER_0_1_148
*151 FILLER_0_1_44
*152 FILLER_0_1_60
*153 FILLER_0_1_68
*154 FILLER_0_1_72
*155 FILLER_0_1_8
*156 FILLER_0_2_101
*157 FILLER_0_2_107
*158 FILLER_0_2_123
*159 FILLER_0_2_2
*160 FILLER_0_2_34
*161 FILLER_0_2_37
*162 FILLER_0_3_104
*163 FILLER_0_3_112
*164 FILLER_0_3_12
*165 FILLER_0_3_150
*166 FILLER_0_3_44
*167 FILLER_0_3_60
*168 FILLER_0_3_68
*169 FILLER_0_3_72
*170 FILLER_0_3_8
*171 FILLER_0_4_101
*172 FILLER_0_4_107
*173 FILLER_0_4_123
*174 FILLER_0_4_2
*175 FILLER_0_4_34
*176 FILLER_0_4_37
*177 FILLER_0_5_104
*178 FILLER_0_5_112
*179 FILLER_0_5_12
*180 FILLER_0_5_44
*181 FILLER_0_5_60
*182 FILLER_0_5_68
*183 FILLER_0_5_72
*184 FILLER_0_5_8
*185 FILLER_0_6_101
*186 FILLER_0_6_107
*187 FILLER_0_6_111
*188 FILLER_0_6_113
*189 FILLER_0_6_2
*190 FILLER_0_6_34
*191 FILLER_0_6_37
*192 FILLER_0_7_104
*193 FILLER_0_7_2
*194 FILLER_0_7_66
*195 FILLER_0_7_72
*196 FILLER_0_8_101
*197 FILLER_0_8_107
*198 FILLER_0_8_115
*199 FILLER_0_8_117
*200 FILLER_0_8_12
*201 FILLER_0_8_28
*202 FILLER_0_8_32
*203 FILLER_0_8_34
*204 FILLER_0_8_37
*205 FILLER_0_8_8
*206 FILLER_0_9_104
*207 FILLER_0_9_112
*208 FILLER_0_9_148
*209 FILLER_0_9_2
*210 FILLER_0_9_66
*211 FILLER_0_9_72
*212 PHY_EDGE_ROW_0_Left_17
*213 PHY_EDGE_ROW_0_Right_0
*214 PHY_EDGE_ROW_10_Left_27
*215 PHY_EDGE_ROW_10_Right_10
*216 PHY_EDGE_ROW_11_Left_28
*217 PHY_EDGE_ROW_11_Right_11
*218 PHY_EDGE_ROW_12_Left_29
*219 PHY_EDGE_ROW_12_Right_12
*220 PHY_EDGE_ROW_13_Left_30
*221 PHY_EDGE_ROW_13_Right_13
*222 PHY_EDGE_ROW_14_Left_31
*223 PHY_EDGE_ROW_14_Right_14
*224 PHY_EDGE_ROW_15_Left_32
*225 PHY_EDGE_ROW_15_Right_15
*226 PHY_EDGE_ROW_16_Left_33
*227 PHY_EDGE_ROW_16_Right_16
*228 PHY_EDGE_ROW_1_Left_18
*229 PHY_EDGE_ROW_1_Right_1
*230 PHY_EDGE_ROW_2_Left_19
*231 PHY_EDGE_ROW_2_Right_2
*232 PHY_EDGE_ROW_3_Left_20
*233 PHY_EDGE_ROW_3_Right_3
*234 PHY_EDGE_ROW_4_Left_21
*235 PHY_EDGE_ROW_4_Right_4
*236 PHY_EDGE_ROW_5_Left_22
*237 PHY_EDGE_ROW_5_Right_5
*238 PHY_EDGE_ROW_6_Left_23
*239 PHY_EDGE_ROW_6_Right_6
*240 PHY_EDGE_ROW_7_Left_24
*241 PHY_EDGE_ROW_7_Right_7
*242 PHY_EDGE_ROW_8_Left_25
*243 PHY_EDGE_ROW_8_Right_8
*244 PHY_EDGE_ROW_9_Left_26
*245 PHY_EDGE_ROW_9_Right_9
*246 TAP_TAPCELL_ROW_0_34
*247 TAP_TAPCELL_ROW_0_35
*248 TAP_TAPCELL_ROW_0_36
*249 TAP_TAPCELL_ROW_0_37
*250 TAP_TAPCELL_ROW_10_56
*251 TAP_TAPCELL_ROW_10_57
*252 TAP_TAPCELL_ROW_11_58
*253 TAP_TAPCELL_ROW_11_59
*254 TAP_TAPCELL_ROW_12_60
*255 TAP_TAPCELL_ROW_12_61
*256 TAP_TAPCELL_ROW_13_62
*257 TAP_TAPCELL_ROW_13_63
*258 TAP_TAPCELL_ROW_14_64
*259 TAP_TAPCELL_ROW_14_65
*260 TAP_TAPCELL_ROW_15_66
*261 TAP_TAPCELL_ROW_15_67
*262 TAP_TAPCELL_ROW_16_68
*263 TAP_TAPCELL_ROW_16_69
*264 TAP_TAPCELL_ROW_16_70
*265 TAP_TAPCELL_ROW_16_71
*266 TAP_TAPCELL_ROW_1_38
*267 TAP_TAPCELL_ROW_1_39
*268 TAP_TAPCELL_ROW_2_40
*269 TAP_TAPCELL_ROW_2_41
*270 TAP_TAPCELL_ROW_3_42
*271 TAP_TAPCELL_ROW_3_43
*272 TAP_TAPCELL_ROW_4_44
*273 TAP_TAPCELL_ROW_4_45
*274 TAP_TAPCELL_ROW_5_46
*275 TAP_TAPCELL_ROW_5_47
*276 TAP_TAPCELL_ROW_6_48
*277 TAP_TAPCELL_ROW_6_49
*278 TAP_TAPCELL_ROW_7_50
*279 TAP_TAPCELL_ROW_7_51
*280 TAP_TAPCELL_ROW_8_52
*281 TAP_TAPCELL_ROW_8_53
*282 TAP_TAPCELL_ROW_9_54
*283 TAP_TAPCELL_ROW_9_55
*284 _00_
*285 _01_
*286 _02_
*287 _03_
*288 _04_
*289 _05_
*290 _06_
*291 _07_
*292 _08_
*293 _09_
*294 _10_
*295 _11_
*296 _12_
*297 _13_
*298 _14_
*299 _15_
*300 _16_
*301 _17_
*302 _18_
*303 _19_
*304 input1
*305 input10
*306 input2
*307 input3
*308 input4
*309 input5
*310 input6
*311 input7
*312 input8
*313 input9
*314 output11
*315 output12
*316 output13
*317 output14
*318 output15
*319 output16
*320 output17
*321 output18
*322 output19
*323 output20
*324 output21
*325 output22
*326 output23
*327 output24
*328 output25
*329 output26
*330 output27
*331 output28
*332 output29
*333 output30

*PORTS
input_signal[0] I
input_signal[1] I
input_signal[2] I
input_signal[3] I
input_signal[4] I
input_signal[5] I
input_signal[6] I
input_signal[7] I
input_signal[8] I
input_signal[9] I
output_signal_minus[0] O
output_signal_minus[1] O
output_signal_minus[2] O
output_signal_minus[3] O
output_signal_minus[4] O
output_signal_minus[5] O
output_signal_minus[6] O
output_signal_minus[7] O
output_signal_minus[8] O
output_signal_minus[9] O
output_signal_plus[0] O
output_signal_plus[1] O
output_signal_plus[2] O
output_signal_plus[3] O
output_signal_plus[4] O
output_signal_plus[5] O
output_signal_plus[6] O
output_signal_plus[7] O
output_signal_plus[8] O
output_signal_plus[9] O

*D_NET *1 0.00159651
*CONN
*P input_signal[0] I
*I *304:I I *D gf180mcu_fd_sc_mcu7t5v0__clkbuf_1
*I *72:I I *D gf180mcu_fd_sc_mcu7t5v0__antenna
*CAP
1 input_signal[0] 0.000536821
2 *304:I 3.1962e-05
3 *72:I 0.000170981
4 *1:9 0.000739764
5 *72:I *73:I 0
6 *72:I *2:9 6.04444e-06
7 *72:I *33:10 0.00010068
8 *304:I *33:10 1.02578e-05
*RES
1 input_signal[0] *1:9 7.958 
2 *1:9 *72:I 14.868 
3 *1:9 *304:I 4.728 
*END

*D_NET *2 0.00116489
*CONN
*P input_signal[1] I
*I *306:I I *D gf180mcu_fd_sc_mcu7t5v0__clkbuf_1
*I *73:I I *D gf180mcu_fd_sc_mcu7t5v0__antenna
*CAP
1 input_signal[1] 0.000356175
2 *306:I 4.24085e-05
3 *73:I 0.00015152
4 *2:9 0.000550104
5 *73:I *33:10 5.40492e-05
6 *2:9 *33:10 4.58601e-06
7 *72:I *73:I 0
8 *72:I *2:9 6.04444e-06
*RES
1 input_signal[1] *2:9 6.742 
2 *2:9 *73:I 14.64 
3 *2:9 *306:I 4.728 
*END

*D_NET *3 0.00134844
*CONN
*P input_signal[2] I
*I *74:I I *D gf180mcu_fd_sc_mcu7t5v0__antenna
*I *307:I I *D gf180mcu_fd_sc_mcu7t5v0__clkbuf_1
*CAP
1 input_signal[2] 0.000219064
2 *74:I 0.00030066
3 *307:I 0.000103326
4 *3:5 0.00062305
5 *74:I *44:12 5.18896e-05
6 *307:I *44:12 5.04498e-05
*RES
1 input_signal[2] *3:5 1.406 
2 *3:5 *307:I 9.684 
3 *3:5 *74:I 10.672 
*END

*D_NET *4 0.00103555
*CONN
*P input_signal[3] I
*I *75:I I *D gf180mcu_fd_sc_mcu7t5v0__antenna
*I *308:I I *D gf180mcu_fd_sc_mcu7t5v0__clkbuf_1
*CAP
1 input_signal[3] 0.000201351
2 *75:I 0.000197387
3 *308:I 5.14977e-05
4 *4:5 0.000450236
5 *75:I *44:12 0
6 *75:I *55:14 2.22758e-05
7 *75:I *57:14 8.30371e-05
8 *308:I *55:14 2.976e-05
*RES
1 input_signal[3] *4:5 1.406 
2 *4:5 *308:I 9.38 
3 *4:5 *75:I 10.368 
*END

*D_NET *5 0.00128108
*CONN
*P input_signal[4] I
*I *309:I I *D gf180mcu_fd_sc_mcu7t5v0__clkbuf_1
*I *76:I I *D gf180mcu_fd_sc_mcu7t5v0__antenna
*CAP
1 input_signal[4] 0.000383414
2 *309:I 0
3 *76:I 0.000114197
4 *5:9 0.000497611
5 *76:I *77:I 0
6 *76:I *58:12 0.000285856
*RES
1 input_signal[4] *5:9 6.894 
2 *5:9 *76:I 14.64 
3 *5:9 *309:I 4.5 
*END

*D_NET *6 0.00111265
*CONN
*P input_signal[5] I
*I *77:I I *D gf180mcu_fd_sc_mcu7t5v0__antenna
*I *310:I I *D gf180mcu_fd_sc_mcu7t5v0__clkbuf_1
*CAP
1 input_signal[5] 0.000201351
2 *77:I 0.000217169
3 *310:I 0.000105654
4 *6:5 0.000524175
5 *77:I *59:14 5.40431e-05
6 *310:I *59:14 1.02578e-05
7 *76:I *77:I 0
*RES
1 input_signal[5] *6:5 1.406 
2 *6:5 *310:I 9.684 
3 *6:5 *77:I 10.672 
*END

*D_NET *7 0.00107494
*CONN
*P input_signal[6] I
*I *78:I I *D gf180mcu_fd_sc_mcu7t5v0__antenna
*I *311:I I *D gf180mcu_fd_sc_mcu7t5v0__clkbuf_1
*CAP
1 input_signal[6] 0.000219064
2 *78:I 0.000194751
3 *311:I 6.14458e-05
4 *7:5 0.000475261
5 *78:I *60:10 0.000124422
*RES
1 input_signal[6] *7:5 1.406 
2 *7:5 *311:I 9.38 
3 *7:5 *78:I 10.368 
*END

*D_NET *8 0.000898998
*CONN
*P input_signal[7] I
*I *79:I I *D gf180mcu_fd_sc_mcu7t5v0__antenna
*I *312:I I *D gf180mcu_fd_sc_mcu7t5v0__clkbuf_1
*CAP
1 input_signal[7] 0.000190895
2 *79:I 0.000119101
3 *312:I 0
4 *8:5 0.000309997
5 *79:I *61:10 0.000279004
*RES
1 input_signal[7] *8:5 1.406 
2 *8:5 *312:I 9 
3 *8:5 *79:I 10.14 
*END

*D_NET *9 0.00145099
*CONN
*P input_signal[8] I
*I *313:I I *D gf180mcu_fd_sc_mcu7t5v0__clkbuf_1
*I *80:I I *D gf180mcu_fd_sc_mcu7t5v0__antenna
*CAP
1 input_signal[8] 0.000313121
2 *313:I 0
3 *80:I 0.000203089
4 *9:9 0.00051621
5 *80:I *10:9 2.9378e-06
6 *80:I *62:10 2.40867e-05
7 *9:9 *71:I 0.000390052
8 *9:9 *10:9 1.49066e-06
*RES
1 input_signal[8] *9:9 7.046 
2 *9:9 *80:I 5.716 
3 *9:9 *313:I 4.5 
*END

*D_NET *10 0.0023257
*CONN
*P input_signal[9] I
*I *305:I I *D gf180mcu_fd_sc_mcu7t5v0__clkbuf_1
*I *71:I I *D gf180mcu_fd_sc_mcu7t5v0__antenna
*CAP
1 input_signal[9] 0.000639118
2 *305:I 0
3 *71:I 0.000168436
4 *10:9 0.000807554
5 *71:I *34:14 0.00031611
6 *80:I *10:9 2.9378e-06
7 *9:9 *71:I 0.000390052
8 *9:9 *10:9 1.49066e-06
*RES
1 input_signal[9] *10:9 8.566 
2 *10:9 *71:I 15.552 
3 *10:9 *305:I 4.5 
*END

*D_NET *11 0.0036752
*CONN
*P output_signal_minus[0] O
*I *314:Z O *D gf180mcu_fd_sc_mcu7t5v0__buf_8
*CAP
1 output_signal_minus[0] 0.00180401
2 *314:Z 0.00180401
3 output_signal_minus[0] output_signal_minus[9] 6.71936e-05
*RES
1 *314:Z output_signal_minus[0] 21.578 
*END

*D_NET *12 0.00184507
*CONN
*P output_signal_minus[1] O
*I *315:Z O *D gf180mcu_fd_sc_mcu7t5v0__buf_8
*CAP
1 output_signal_minus[1] 0.000607477
2 *315:Z 0.000607477
3 output_signal_minus[1] output_signal_minus[2] 3.00679e-05
4 output_signal_minus[1] output_signal_plus[1] 0
5 output_signal_minus[1] *321:I 0.000190667
6 output_signal_minus[1] *326:I 7.29705e-05
7 output_signal_minus[1] *328:I 9.88736e-06
8 output_signal_minus[1] *58:20 0.00032652
*RES
1 *315:Z output_signal_minus[1] 13.522 
*END

*D_NET *13 0.00169514
*CONN
*P output_signal_minus[2] O
*I *316:Z O *D gf180mcu_fd_sc_mcu7t5v0__buf_8
*CAP
1 output_signal_minus[2] 0.000690721
2 *316:Z 0.000690721
3 output_signal_minus[2] output_signal_minus[3] 0
4 output_signal_minus[2] *296:I 0.000116256
5 output_signal_minus[2] *320:I 1.96382e-05
6 output_signal_minus[2] *321:I 5.48978e-05
7 output_signal_minus[2] *57:33 1.26706e-05
8 output_signal_minus[2] *58:20 8.01703e-05
9 output_signal_minus[1] output_signal_minus[2] 3.00679e-05
*RES
1 *316:Z output_signal_minus[2] 13.142 
*END

*D_NET *14 0.00151701
*CONN
*P output_signal_minus[3] O
*I *317:Z O *D gf180mcu_fd_sc_mcu7t5v0__buf_8
*CAP
1 output_signal_minus[3] 0.000624266
2 *317:Z 0.000624266
3 output_signal_minus[3] output_signal_minus[4] 0
4 output_signal_minus[3] *296:I 7.24161e-06
5 output_signal_minus[3] *321:I 9.58397e-05
6 output_signal_minus[3] *57:33 0.000107215
7 output_signal_minus[3] *58:26 5.8187e-05
8 output_signal_minus[2] output_signal_minus[3] 0
*RES
1 *317:Z output_signal_minus[3] 13.142 
*END

*D_NET *15 0.00226117
*CONN
*P output_signal_minus[4] O
*I *318:Z O *D gf180mcu_fd_sc_mcu7t5v0__buf_8
*CAP
1 output_signal_minus[4] 0.000820967
2 *318:Z 0.000820967
3 output_signal_minus[4] output_signal_minus[5] 0
4 output_signal_minus[4] *286:I 0.000345329
5 output_signal_minus[4] *324:I 0.000255722
6 output_signal_minus[4] *44:18 1.81888e-05
7 output_signal_minus[3] output_signal_minus[4] 0
*RES
1 *318:Z output_signal_minus[4] 14.434 
*END

*D_NET *16 0.00195791
*CONN
*P output_signal_minus[5] O
*I *319:Z O *D gf180mcu_fd_sc_mcu7t5v0__buf_8
*CAP
1 output_signal_minus[5] 0.000530909
2 *319:Z 0.000530909
3 output_signal_minus[5] output_signal_minus[6] 0
4 output_signal_minus[5] *65:I 0.000460427
5 output_signal_minus[5] *286:I 6.52605e-05
6 output_signal_minus[5] *320:I 5.29084e-05
7 output_signal_minus[5] *321:I 0.000317494
8 output_signal_minus[4] output_signal_minus[5] 0
*RES
1 *319:Z output_signal_minus[5] 13.37 
*END

*D_NET *17 0.0021463
*CONN
*P output_signal_minus[6] O
*I *320:Z O *D gf180mcu_fd_sc_mcu7t5v0__buf_8
*CAP
1 output_signal_minus[6] 0.000862414
2 *320:Z 0.000862414
3 output_signal_minus[6] output_signal_minus[7] 0
4 output_signal_minus[6] output_signal_minus[8] 0
5 output_signal_minus[6] *65:I 0
6 output_signal_minus[6] *314:I 5.94709e-06
7 output_signal_minus[6] *324:I 0.000415525
8 output_signal_minus[5] output_signal_minus[6] 0
*RES
1 *320:Z output_signal_minus[6] 14.434 
*END

*D_NET *18 0.00254802
*CONN
*P output_signal_minus[7] O
*I *321:Z O *D gf180mcu_fd_sc_mcu7t5v0__buf_8
*CAP
1 output_signal_minus[7] 0.000665677
2 *321:Z 0.000665677
3 output_signal_minus[7] output_signal_minus[8] 0.000255722
4 output_signal_minus[7] *294:I 8.29507e-05
5 output_signal_minus[7] *314:I 0.000490411
6 output_signal_minus[7] *323:I 7.37597e-05
7 output_signal_minus[7] *324:I 6.25545e-05
8 output_signal_minus[7] *33:10 0.000251265
9 output_signal_minus[6] output_signal_minus[7] 0
*RES
1 *321:Z output_signal_minus[7] 15.498 
*END

*D_NET *19 0.0037539
*CONN
*P output_signal_minus[8] O
*I *322:Z O *D gf180mcu_fd_sc_mcu7t5v0__buf_8
*CAP
1 output_signal_minus[8] 0.00116643
2 *322:Z 0.00116643
3 output_signal_minus[8] output_signal_minus[9] 0
4 output_signal_minus[8] *65:I 0.00026286
5 output_signal_minus[8] *323:I 0.000897324
6 output_signal_minus[8] *324:I 5.14116e-06
7 output_signal_minus[6] output_signal_minus[8] 0
8 output_signal_minus[7] output_signal_minus[8] 0.000255722
*RES
1 *322:Z output_signal_minus[8] 19.222 
*END

*D_NET *20 0.00339972
*CONN
*P output_signal_minus[9] O
*I *323:Z O *D gf180mcu_fd_sc_mcu7t5v0__buf_8
*CAP
1 output_signal_minus[9] 0.00166626
2 *323:Z 0.00166626
3 output_signal_minus[0] output_signal_minus[9] 6.71936e-05
4 output_signal_minus[8] output_signal_minus[9] 0
*RES
1 *323:Z output_signal_minus[9] 20.97 
*END

*D_NET *21 0.00261499
*CONN
*P output_signal_plus[0] O
*I *324:Z O *D gf180mcu_fd_sc_mcu7t5v0__buf_8
*CAP
1 output_signal_plus[0] 0.00130749
2 *324:Z 0.00130749
3 output_signal_plus[0] output_signal_plus[9] 0
*RES
1 *324:Z output_signal_plus[0] 17.93 
*END

*D_NET *22 0.00138913
*CONN
*P output_signal_plus[1] O
*I *325:Z O *D gf180mcu_fd_sc_mcu7t5v0__buf_8
*CAP
1 output_signal_plus[1] 0.000623198
2 *325:Z 0.000623198
3 output_signal_plus[1] output_signal_plus[2] 0
4 output_signal_plus[1] *59:14 0
5 output_signal_plus[1] *59:20 0.000142736
6 output_signal_minus[1] output_signal_plus[1] 0
*RES
1 *325:Z output_signal_plus[1] 12.686 
*END

*D_NET *23 0.00195349
*CONN
*P output_signal_plus[2] O
*I *326:Z O *D gf180mcu_fd_sc_mcu7t5v0__buf_8
*CAP
1 output_signal_plus[2] 0.000659041
2 *326:Z 0.000659041
3 output_signal_plus[2] output_signal_plus[3] 0
4 output_signal_plus[2] *321:I 0.000223576
5 output_signal_plus[2] *328:I 0.000115892
6 output_signal_plus[2] *59:14 0.000221176
7 output_signal_plus[2] *59:20 7.47635e-05
8 output_signal_plus[1] output_signal_plus[2] 0
*RES
1 *326:Z output_signal_plus[2] 13.75 
*END

*D_NET *24 0.00130992
*CONN
*P output_signal_plus[3] O
*I *327:Z O *D gf180mcu_fd_sc_mcu7t5v0__buf_8
*CAP
1 output_signal_plus[3] 0.000355204
2 *327:Z 0.000355204
3 output_signal_plus[3] output_signal_plus[4] 0
4 output_signal_plus[3] *66:I 0.00026286
5 output_signal_plus[3] *323:I 1.20079e-05
6 output_signal_plus[3] *329:I 0.00032464
7 output_signal_plus[2] output_signal_plus[3] 0
*RES
1 *327:Z output_signal_plus[3] 11.698 
*END

*D_NET *25 0.00108335
*CONN
*P output_signal_plus[4] O
*I *328:Z O *D gf180mcu_fd_sc_mcu7t5v0__buf_8
*CAP
1 output_signal_plus[4] 0.000428444
2 *328:Z 0.000428444
3 output_signal_plus[4] output_signal_plus[5] 0
4 output_signal_plus[4] *321:I 0.000121891
5 output_signal_plus[4] *60:10 0.000104569
6 output_signal_plus[3] output_signal_plus[4] 0
*RES
1 *328:Z output_signal_plus[4] 11.926 
*END

*D_NET *26 0.00126137
*CONN
*P output_signal_plus[5] O
*I *329:Z O *D gf180mcu_fd_sc_mcu7t5v0__buf_8
*CAP
1 output_signal_plus[5] 0.000516661
2 *329:Z 0.000516661
3 output_signal_plus[5] output_signal_plus[6] 0
4 output_signal_plus[5] *292:I 5.38123e-05
5 output_signal_plus[5] *321:I 0.000121891
6 output_signal_plus[5] *61:10 5.23469e-05
7 output_signal_plus[4] output_signal_plus[5] 0
*RES
1 *329:Z output_signal_plus[5] 12.458 
*END

*D_NET *27 0.00205118
*CONN
*P output_signal_plus[6] O
*I *330:Z O *D gf180mcu_fd_sc_mcu7t5v0__buf_8
*CAP
1 output_signal_plus[6] 0.000788526
2 *330:Z 0.000788526
3 output_signal_plus[6] output_signal_plus[7] 0
4 output_signal_plus[6] *292:I 9.77378e-05
5 output_signal_plus[6] *302:I 8.24826e-05
6 output_signal_plus[6] *331:I 7.36026e-05
7 output_signal_plus[6] *61:10 0.0002203
8 output_signal_plus[5] output_signal_plus[6] 0
*RES
1 *330:Z output_signal_plus[6] 14.434 
*END

*D_NET *28 0.00385596
*CONN
*P output_signal_plus[7] O
*I *331:Z O *D gf180mcu_fd_sc_mcu7t5v0__buf_8
*CAP
1 output_signal_plus[7] 0.000861039
2 *331:Z 0.000861039
3 output_signal_plus[7] output_signal_plus[8] 0
4 output_signal_plus[7] *293:I 0.000160897
5 output_signal_plus[7] *302:I 0.000394653
6 output_signal_plus[7] *322:I 6.44359e-05
7 output_signal_plus[7] *324:I 0.000323466
8 output_signal_plus[7] *331:I 3.22131e-05
9 output_signal_plus[7] *332:I 0.000710693
10 output_signal_plus[7] *34:14 0.000447527
11 output_signal_plus[6] output_signal_plus[7] 0
*RES
1 *331:Z output_signal_plus[7] 17.626 
*END

*D_NET *29 0.00331409
*CONN
*P output_signal_plus[8] O
*I *332:Z O *D gf180mcu_fd_sc_mcu7t5v0__buf_8
*CAP
1 output_signal_plus[8] 0.00141587
2 *332:Z 0.00141587
3 output_signal_plus[8] output_signal_plus[9] 0
4 output_signal_plus[8] *332:I 0
5 output_signal_plus[8] *333:I 0.000473703
6 output_signal_plus[8] *34:14 8.64281e-06
7 output_signal_plus[7] output_signal_plus[8] 0
*RES
1 *332:Z output_signal_plus[8] 19.298 
*END

*D_NET *30 0.00349038
*CONN
*P output_signal_plus[9] O
*I *333:Z O *D gf180mcu_fd_sc_mcu7t5v0__buf_8
*CAP
1 output_signal_plus[9] 0.00174519
2 *333:Z 0.00174519
3 output_signal_plus[0] output_signal_plus[9] 0
4 output_signal_plus[8] output_signal_plus[9] 0
*RES
1 *333:Z output_signal_plus[9] 21.274 
*END

*D_NET *33 0.0090815
*CONN
*I *294:I I *D gf180mcu_fd_sc_mcu7t5v0__buf_1
*I *285:I I *D gf180mcu_fd_sc_mcu7t5v0__clkinv_1
*I *304:Z O *D gf180mcu_fd_sc_mcu7t5v0__clkbuf_1
*CAP
1 *294:I 0.000203604
2 *285:I 0
3 *304:Z 0.00264841
4 *33:10 0.00285201
5 *294:I *314:I 1.69448e-05
6 *294:I *323:I 0.000339707
7 *33:10 *314:I 4.28535e-05
8 *33:10 *323:I 0.00247418
9 output_signal_minus[7] *294:I 8.29507e-05
10 output_signal_minus[7] *33:10 0.000251265
11 *72:I *33:10 0.00010068
12 *73:I *33:10 5.40492e-05
13 *304:I *33:10 1.02578e-05
14 *2:9 *33:10 4.58601e-06
*RES
1 *304:Z *33:10 29.824 
2 *33:10 *285:I 9 
3 *33:10 *294:I 10.824 
*END

*D_NET *34 0.0108886
*CONN
*I *284:I I *D gf180mcu_fd_sc_mcu7t5v0__inv_1
*I *303:I I *D gf180mcu_fd_sc_mcu7t5v0__clkbuf_1
*I *305:Z O *D gf180mcu_fd_sc_mcu7t5v0__clkbuf_1
*CAP
1 *284:I 0.000242523
2 *303:I 2.91706e-05
3 *305:Z 0.00169292
4 *34:14 0.00196462
5 *284:I *302:I 0
6 *284:I *323:I 0
7 *303:I *333:I 2.96621e-05
8 *34:14 *332:I 0.00165847
9 *34:14 *333:I 0.00278361
10 *34:14 *62:10 0.00171531
11 output_signal_plus[7] *34:14 0.000447527
12 output_signal_plus[8] *34:14 8.64281e-06
13 *71:I *34:14 0.00031611
*RES
1 *305:Z *34:14 35.312 
2 *34:14 *303:I 4.728 
3 *34:14 *284:I 5.868 
*END

*D_NET *35 0.00219922
*CONN
*I *314:I I *D gf180mcu_fd_sc_mcu7t5v0__buf_8
*I *285:ZN O *D gf180mcu_fd_sc_mcu7t5v0__clkinv_1
*CAP
1 *314:I 0.000551222
2 *285:ZN 0.000551222
3 *314:I *321:I 0.000307974
4 *314:I *324:I 0.00023265
5 output_signal_minus[6] *314:I 5.94709e-06
6 output_signal_minus[7] *314:I 0.000490411
7 *294:I *314:I 1.69448e-05
8 *33:10 *314:I 4.28535e-05
*RES
1 *285:ZN *314:I 23.016 
*END

*D_NET *36 0.000527309
*CONN
*I *315:I I *D gf180mcu_fd_sc_mcu7t5v0__buf_8
*I *286:ZN O *D gf180mcu_fd_sc_mcu7t5v0__clkinv_1
*CAP
1 *315:I 3.39544e-05
2 *286:ZN 3.39544e-05
3 *315:I *319:I 0.000317503
4 *315:I *323:I 0.000141897
*RES
1 *286:ZN *315:I 9.836 
*END

*D_NET *37 0.000295837
*CONN
*I *316:I I *D gf180mcu_fd_sc_mcu7t5v0__buf_8
*I *287:ZN O *D gf180mcu_fd_sc_mcu7t5v0__clkinv_1
*CAP
1 *316:I 0.000121464
2 *287:ZN 0.000121464
3 *316:I *322:I 5.29084e-05
*RES
1 *287:ZN *316:I 9.836 
*END

*D_NET *38 0.000666541
*CONN
*I *317:I I *D gf180mcu_fd_sc_mcu7t5v0__buf_8
*I *288:ZN O *D gf180mcu_fd_sc_mcu7t5v0__clkinv_1
*CAP
1 *317:I 1.81503e-05
2 *288:ZN 1.81503e-05
3 *317:I *319:I 0.00031512
4 *317:I *57:33 0.00031512
*RES
1 *288:ZN *317:I 9.836 
*END

*D_NET *39 0.00171009
*CONN
*I *318:I I *D gf180mcu_fd_sc_mcu7t5v0__buf_8
*I *289:ZN O *D gf180mcu_fd_sc_mcu7t5v0__clkinv_1
*CAP
1 *318:I 0.000177385
2 *289:ZN 0.000177385
3 *318:I *65:I 0.000403764
4 *318:I *286:I 0.000128035
5 *318:I *320:I 0.000107744
6 *318:I *321:I 0.000715774
*RES
1 *289:ZN *318:I 20.888 
*END

*D_NET *40 0.00324167
*CONN
*I *319:I I *D gf180mcu_fd_sc_mcu7t5v0__buf_8
*I *290:ZN O *D gf180mcu_fd_sc_mcu7t5v0__clkinv_1
*CAP
1 *319:I 0.000348635
2 *290:ZN 0.000348635
3 *319:I *64:I 0.000247444
4 *319:I *286:I 0.000397801
5 *319:I *323:I 0.000481156
6 *319:I *57:33 0.000634748
7 *319:I *58:26 0.000150628
8 *315:I *319:I 0.000317503
9 *317:I *319:I 0.00031512
*RES
1 *290:ZN *319:I 14.928 
*END

*D_NET *41 0.00505533
*CONN
*I *320:I I *D gf180mcu_fd_sc_mcu7t5v0__buf_8
*I *291:ZN O *D gf180mcu_fd_sc_mcu7t5v0__inv_1
*CAP
1 *320:I 0.00147705
2 *291:ZN 0.00147705
3 *320:I *321:I 7.0238e-05
4 *320:I *324:I 0.00175148
5 *320:I *59:14 9.92225e-05
6 *320:I *60:10 0
7 output_signal_minus[2] *320:I 1.96382e-05
8 output_signal_minus[5] *320:I 5.29084e-05
9 *318:I *320:I 0.000107744
*RES
1 *291:ZN *320:I 30.54 
*END

*D_NET *42 0.00680177
*CONN
*I *321:I I *D gf180mcu_fd_sc_mcu7t5v0__buf_8
*I *292:ZN O *D gf180mcu_fd_sc_mcu7t5v0__inv_1
*CAP
1 *321:I 0.0021199
2 *292:ZN 0.0021199
3 *321:I *64:I 0
4 *321:I *291:I 4.71416e-05
5 *321:I *296:I 0
6 *321:I *300:I 5.09899e-05
7 *321:I *324:I 0
8 *321:I *326:I 5.63061e-05
9 *321:I *328:I 0.000111288
10 *321:I *58:26 2.25032e-05
11 *321:I *59:14 4.40364e-05
12 *321:I *60:10 9.45638e-06
13 *321:I *61:10 0
14 output_signal_minus[1] *321:I 0.000190667
15 output_signal_minus[2] *321:I 5.48978e-05
16 output_signal_minus[3] *321:I 9.58397e-05
17 output_signal_minus[5] *321:I 0.000317494
18 output_signal_plus[2] *321:I 0.000223576
19 output_signal_plus[4] *321:I 0.000121891
20 output_signal_plus[5] *321:I 0.000121891
21 *314:I *321:I 0.000307974
22 *318:I *321:I 0.000715774
23 *320:I *321:I 7.0238e-05
*RES
1 *292:ZN *321:I 34.264 
*END

*D_NET *43 0.00506542
*CONN
*I *322:I I *D gf180mcu_fd_sc_mcu7t5v0__buf_8
*I *293:ZN O *D gf180mcu_fd_sc_mcu7t5v0__inv_1
*CAP
1 *322:I 0.00164983
2 *293:ZN 0.00164983
3 *322:I *65:I 7.71175e-06
4 *322:I *295:I 0.000121187
5 *322:I *297:I 2.96621e-05
6 *322:I *324:I 0
7 *322:I *325:I 0.000509981
8 *322:I *327:I 0.000134632
9 *322:I *44:18 0.000829785
10 *322:I *57:14 1.54542e-05
11 *322:I *58:12 0
12 *322:I *58:20 0
13 output_signal_plus[7] *322:I 6.44359e-05
14 *316:I *322:I 5.29084e-05
*RES
1 *293:ZN *322:I 21.312 
*END

*D_NET *44 0.0116942
*CONN
*I *286:I I *D gf180mcu_fd_sc_mcu7t5v0__clkinv_1
*I *63:I I *D gf180mcu_fd_sc_mcu7t5v0__antenna
*I *295:I I *D gf180mcu_fd_sc_mcu7t5v0__clkbuf_1
*I *67:I I *D gf180mcu_fd_sc_mcu7t5v0__antenna
*I *306:Z O *D gf180mcu_fd_sc_mcu7t5v0__clkbuf_1
*CAP
1 *286:I 0.000455015
2 *63:I 0
3 *295:I 2.02835e-05
4 *67:I 9.1413e-05
5 *306:Z 0.00320984
6 *44:18 0.000600846
7 *44:14 0.00048915
8 *44:12 0.00366486
9 *67:I *58:20 5.93303e-05
10 *286:I *65:I 0.000146123
11 *286:I *323:I 0.000493324
12 *295:I *327:I 2.976e-05
13 *44:12 *55:14 0.00020108
14 *44:12 *57:14 0
15 *44:18 *297:I 2.96621e-05
16 *44:18 *324:I 0
17 *44:18 *327:I 0.000195609
18 output_signal_minus[4] *286:I 0.000345329
19 output_signal_minus[4] *44:18 1.81888e-05
20 output_signal_minus[5] *286:I 6.52605e-05
21 *74:I *44:12 5.18896e-05
22 *75:I *44:12 0
23 *307:I *44:12 5.04498e-05
24 *318:I *286:I 0.000128035
25 *319:I *286:I 0.000397801
26 *322:I *295:I 0.000121187
27 *322:I *44:18 0.000829785
*RES
1 *306:Z *44:12 29.748 
2 *44:12 *44:14 4.5 
3 *44:14 *44:18 4.56 
4 *44:18 *67:I 14.184 
5 *44:18 *295:I 4.88 
6 *44:14 *63:I 4.5 
7 *44:12 *286:I 14.32 
*END

*D_NET *45 0.0116209
*CONN
*I *323:I I *D gf180mcu_fd_sc_mcu7t5v0__buf_8
*I *284:ZN O *D gf180mcu_fd_sc_mcu7t5v0__inv_1
*CAP
1 *323:I 0.00240056
2 *284:ZN 0.00240056
3 *323:I *64:I 0.000167312
4 *323:I *66:I 0.000316388
5 *323:I *290:I 0.000839326
6 *323:I *292:I 0.000369754
7 *323:I *301:I 1.77606e-05
8 *323:I *329:I 0.00016899
9 *323:I *58:26 2.68964e-05
10 output_signal_minus[7] *323:I 7.37597e-05
11 output_signal_minus[8] *323:I 0.000897324
12 output_signal_plus[3] *323:I 1.20079e-05
13 *284:I *323:I 0
14 *286:I *323:I 0.000493324
15 *294:I *323:I 0.000339707
16 *315:I *323:I 0.000141897
17 *319:I *323:I 0.000481156
18 *33:10 *323:I 0.00247418
*RES
1 *284:ZN *323:I 41.94 
*END

*D_NET *46 0.00743134
*CONN
*I *324:I I *D gf180mcu_fd_sc_mcu7t5v0__buf_8
*I *294:Z O *D gf180mcu_fd_sc_mcu7t5v0__buf_1
*CAP
1 *324:I 0.00191272
2 *294:Z 0.00191272
3 *324:I *65:I 7.01965e-05
4 *324:I *327:I 0.000489154
5 *324:I *331:I 0
6 output_signal_minus[4] *324:I 0.000255722
7 output_signal_minus[6] *324:I 0.000415525
8 output_signal_minus[7] *324:I 6.25545e-05
9 output_signal_minus[8] *324:I 5.14116e-06
10 output_signal_plus[7] *324:I 0.000323466
11 *314:I *324:I 0.00023265
12 *320:I *324:I 0.00175148
13 *321:I *324:I 0
14 *322:I *324:I 0
15 *44:18 *324:I 0
*RES
1 *294:Z *324:I 35.784 
*END

*D_NET *47 0.000841634
*CONN
*I *325:I I *D gf180mcu_fd_sc_mcu7t5v0__buf_8
*I *295:Z O *D gf180mcu_fd_sc_mcu7t5v0__clkbuf_1
*CAP
1 *325:I 0.000165826
2 *295:Z 0.000165826
3 *322:I *325:I 0.000509981
*RES
1 *295:Z *325:I 10.672 
*END

*D_NET *48 0.00161419
*CONN
*I *326:I I *D gf180mcu_fd_sc_mcu7t5v0__buf_8
*I *296:Z O *D gf180mcu_fd_sc_mcu7t5v0__clkbuf_1
*CAP
1 *326:I 0.000377322
2 *296:Z 0.000377322
3 *326:I *290:I 4.90676e-05
4 *326:I *296:I 9.39206e-05
5 *326:I *328:I 0.000147661
6 *326:I *329:I 0
7 *326:I *58:26 0.000439622
8 output_signal_minus[1] *326:I 7.29705e-05
9 *321:I *326:I 5.63061e-05
*RES
1 *296:Z *326:I 12.648 
*END

*D_NET *49 0.00188828
*CONN
*I *327:I I *D gf180mcu_fd_sc_mcu7t5v0__buf_8
*I *297:Z O *D gf180mcu_fd_sc_mcu7t5v0__clkbuf_1
*CAP
1 *327:I 0.000519561
2 *297:Z 0.000519561
3 *295:I *327:I 2.976e-05
4 *322:I *327:I 0.000134632
5 *324:I *327:I 0.000489154
6 *44:18 *327:I 0.000195609
*RES
1 *297:Z *327:I 14.168 
*END

*D_NET *50 0.0025455
*CONN
*I *328:I I *D gf180mcu_fd_sc_mcu7t5v0__buf_8
*I *298:Z O *D gf180mcu_fd_sc_mcu7t5v0__clkbuf_1
*CAP
1 *328:I 0.000520125
2 *298:Z 0.000520125
3 *328:I *66:I 8.0352e-06
4 *328:I *290:I 2.69001e-05
5 *328:I *291:I 0.000317494
6 *328:I *300:I 8.55327e-05
7 *328:I *329:I 0.000528582
8 *328:I *59:14 0.00015398
9 output_signal_minus[1] *328:I 9.88736e-06
10 output_signal_plus[2] *328:I 0.000115892
11 *321:I *328:I 0.000111288
12 *326:I *328:I 0.000147661
*RES
1 *298:Z *328:I 14.776 
*END

*D_NET *51 0.00235904
*CONN
*I *329:I I *D gf180mcu_fd_sc_mcu7t5v0__buf_8
*I *299:Z O *D gf180mcu_fd_sc_mcu7t5v0__clkbuf_1
*CAP
1 *329:I 0.000451321
2 *299:Z 0.000451321
3 *329:I *66:I 0.000184378
4 *329:I *292:I 9.65141e-05
5 *329:I *300:I 0.000103946
6 *329:I *301:I 9.88736e-06
7 *329:I *330:I 3.94624e-05
8 *329:I *331:I 0
9 output_signal_plus[3] *329:I 0.00032464
10 *323:I *329:I 0.00016899
11 *326:I *329:I 0
12 *328:I *329:I 0.000528582
*RES
1 *299:Z *329:I 14.32 
*END

*D_NET *52 0.00100011
*CONN
*I *330:I I *D gf180mcu_fd_sc_mcu7t5v0__buf_8
*I *300:Z O *D gf180mcu_fd_sc_mcu7t5v0__clkbuf_1
*CAP
1 *330:I 0.000365633
2 *300:Z 0.000365633
3 *330:I *301:I 0.000121643
4 *330:I *331:I 0.000107744
5 *329:I *330:I 3.94624e-05
*RES
1 *300:Z *330:I 11.812 
*END

*D_NET *53 0.00146408
*CONN
*I *331:I I *D gf180mcu_fd_sc_mcu7t5v0__buf_8
*I *301:Z O *D gf180mcu_fd_sc_mcu7t5v0__clkbuf_1
*CAP
1 *331:I 0.000485761
2 *301:Z 0.000485761