*SPEF "ieee 1481-1999"
*DESIGN "sarlogic"
*DATE "11:11:11 Fri 11 11, 1111"
*VENDOR "OpenRCX"
*PROGRAM "Parallel Extraction"
*VERSION "1.0"
*DESIGN_FLOW "NAME_SCOPE LOCAL" "PIN_CAP NONE"
*DIVIDER /
*DELIMITER :
*BUS_DELIMITER []
*T_UNIT 1 NS
*C_UNIT 1 PF
*R_UNIT 1 OHM
*L_UNIT 1 HENRY

*NAME_MAP
*1 cal
*2 clk
*3 clkc
*4 comp
*5 ctln[0]
*6 ctln[1]
*7 ctln[2]
*8 ctln[3]
*9 ctln[4]
*10 ctln[5]
*11 ctln[6]
*12 ctln[7]
*13 ctln[8]
*14 ctln[9]
*15 ctlp[0]
*16 ctlp[1]
*17 ctlp[2]
*18 ctlp[3]
*19 ctlp[4]
*20 ctlp[5]
*21 ctlp[6]
*22 ctlp[7]
*23 ctlp[8]
*24 ctlp[9]
*25 en
*26 result[0]
*27 result[1]
*28 result[2]
*29 result[3]
*30 result[4]
*31 result[5]
*32 result[6]
*33 result[7]
*34 result[8]
*35 result[9]
*36 rstn
*37 sample
*38 trim[0]
*39 trim[1]
*40 trim[2]
*41 trim[3]
*42 trim[4]
*43 trimb[0]
*44 trimb[1]
*45 trimb[2]
*46 trimb[3]
*47 trimb[4]
*48 valid
*51 _000_
*52 _001_
*53 _002_
*54 _003_
*55 _004_
*56 _005_
*57 _006_
*58 _007_
*59 _008_
*60 _009_
*61 _010_
*62 _011_
*63 _012_
*64 _013_
*65 _014_
*66 _015_
*67 _016_
*68 _017_
*69 _018_
*70 _019_
*71 _020_
*72 _021_
*73 _022_
*74 _023_
*75 _024_
*76 _025_
*77 _026_
*78 _027_
*79 _028_
*80 _029_
*81 _030_
*82 _031_
*83 _032_
*84 _033_
*85 _034_
*86 _035_
*87 _036_
*88 _037_
*89 _038_
*90 _039_
*91 _040_
*92 _041_
*93 _042_
*94 _043_
*95 _044_
*96 _045_
*97 _046_
*98 _047_
*99 _048_
*100 _049_
*101 _050_
*102 _051_
*103 _052_
*104 _053_
*105 _054_
*106 _055_
*107 _056_
*108 _057_
*109 _058_
*110 _059_
*111 _060_
*112 _061_
*113 _062_
*114 _063_
*115 _064_
*116 _065_
*117 _066_
*118 _067_
*119 _068_
*120 _069_
*121 _070_
*122 _071_
*123 _072_
*124 _073_
*125 _074_
*126 _075_
*127 _076_
*128 _077_
*129 _078_
*130 _079_
*131 _080_
*132 _081_
*133 _082_
*134 _083_
*135 _084_
*136 _085_
*137 _086_
*138 _087_
*139 _088_
*140 _089_
*141 _090_
*142 _091_
*143 _092_
*144 _093_
*145 _094_
*146 _095_
*147 _096_
*148 _097_
*149 _098_
*150 _099_
*151 _100_
*152 _101_
*153 _102_
*154 _103_
*155 _104_
*156 _105_
*157 _106_
*158 _107_
*159 _108_
*160 _109_
*161 _110_
*162 _111_
*163 _112_
*164 _113_
*165 _114_
*166 _115_
*167 _116_
*168 _117_
*169 _118_
*170 _119_
*171 _120_
*172 _121_
*173 _122_
*174 _123_
*175 _124_
*176 _125_
*177 _126_
*178 _127_
*179 _128_
*180 _129_
*181 _130_
*182 _131_
*183 _132_
*184 _133_
*185 _134_
*186 _135_
*187 _136_
*188 _137_
*189 _138_
*190 _139_
*191 _140_
*192 _141_
*193 _142_
*194 _143_
*195 _144_
*196 _145_
*197 _146_
*198 _147_
*199 _148_
*200 _149_
*201 _150_
*202 _151_
*203 _152_
*204 _153_
*205 _154_
*206 _155_
*207 _156_
*208 _157_
*209 _158_
*210 _159_
*211 _160_
*212 _161_
*213 _162_
*214 _163_
*215 _164_
*216 _165_
*217 _166_
*218 _167_
*219 _168_
*220 _169_
*221 _170_
*222 _171_
*223 _172_
*224 _173_
*225 _174_
*226 _175_
*227 _176_
*228 _177_
*229 _178_
*230 _179_
*231 _180_
*232 _181_
*233 _182_
*234 _183_
*235 _184_
*236 _185_
*237 _186_
*238 _187_
*239 _188_
*240 cal_count\[0\]
*241 cal_count\[1\]
*242 cal_count\[2\]
*243 cal_count\[3\]
*244 cal_itt\[0\]
*245 cal_itt\[1\]
*246 cal_itt\[2\]
*247 cal_itt\[3\]
*248 calibrate
*249 en_co_clk
*250 mask\[0\]
*251 mask\[1\]
*252 mask\[2\]
*253 mask\[3\]
*254 mask\[4\]
*255 mask\[5\]
*256 mask\[6\]
*257 mask\[7\]
*258 mask\[8\]
*259 mask\[9\]
*260 net1
*261 net10
*262 net11
*263 net12
*264 net13
*265 net14
*266 net15
*267 net16
*268 net17
*269 net18
*270 net19
*271 net2
*272 net20
*273 net21
*274 net22
*275 net23
*276 net24
*277 net25
*278 net26
*279 net27
*280 net28
*281 net29
*282 net3
*283 net30
*284 net31
*285 net32
*286 net33
*287 net34
*288 net35
*289 net36
*290 net37
*291 net38
*292 net39
*293 net4
*294 net40
*295 net41
*296 net42
*297 net43
*298 net44
*299 net45
*300 net46
*301 net47
*302 net48
*303 net49
*304 net5
*305 net50
*306 net51
*307 net52
*308 net53
*309 net54
*310 net55
*311 net56
*312 net57
*313 net58
*314 net59
*315 net6
*316 net60
*317 net61
*318 net62
*319 net63
*320 net64
*321 net65
*322 net66
*323 net67
*324 net68
*325 net69
*326 net7
*327 net70
*328 net71
*329 net72
*330 net73
*331 net74
*332 net75
*333 net76
*334 net77
*335 net78
*336 net79
*337 net8
*338 net80
*339 net81
*340 net82
*341 net9
*342 state\[0\]
*343 state\[1\]
*344 state\[2\]
*345 trim_mask\[0\]
*346 trim_mask\[1\]
*347 trim_mask\[2\]
*348 trim_mask\[3\]
*349 trim_mask\[4\]
*350 trim_val\[0\]
*351 trim_val\[1\]
*352 trim_val\[2\]
*353 trim_val\[3\]
*354 trim_val\[4\]
*355 ANTENNA__190__I
*356 ANTENNA__191__I
*357 ANTENNA__194__I
*358 ANTENNA__197__I
*359 ANTENNA__200__I
*360 ANTENNA__203__I
*361 ANTENNA__206__I
*362 ANTENNA__209__I
*363 ANTENNA__216__A2
*364 ANTENNA__220__A2
*365 ANTENNA__237__I
*366 ANTENNA__240__I
*367 ANTENNA__243__I
*368 ANTENNA__251__A2
*369 ANTENNA__257__A1
*370 ANTENNA__257__B
*371 ANTENNA__277__I
*372 ANTENNA__280__A1
*373 ANTENNA__282__I
*374 ANTENNA__292__I
*375 ANTENNA__301__A2
*376 ANTENNA__302__A1
*377 ANTENNA__303__A2
*378 ANTENNA__303__B
*379 ANTENNA__304__A1
*380 ANTENNA__356__B
*381 ANTENNA__358__I
*382 ANTENNA__372__A2
*383 ANTENNA__373__A1
*384 ANTENNA__377__A1
*385 ANTENNA__385__A2
*386 ANTENNA__390__A1
*387 ANTENNA__392__A2
*388 ANTENNA__394__A3
*389 ANTENNA__395__B
*390 ANTENNA__402__A1
*391 ANTENNA__408__A1
*392 ANTENNA__408__A2
*393 ANTENNA__409__A1
*394 ANTENNA__409__A2
*395 ANTENNA__413__RN
*396 ANTENNA__414__RN
*397 ANTENNA__426__CLK
*398 ANTENNA__448__RN
*399 ANTENNA_fanout52_I
*400 ANTENNA_fanout55_I
*401 ANTENNA_fanout56_I
*402 ANTENNA_fanout58_I
*403 ANTENNA_fanout76_I
*404 ANTENNA_fanout79_I
*405 ANTENNA_fanout80_I
*406 ANTENNA_input1_I
*407 ANTENNA_input2_I
*408 ANTENNA_input3_I
*409 ANTENNA_input4_I
*410 ANTENNA_input5_I
*411 ANTENNA_output14_I
*412 ANTENNA_output15_I
*413 ANTENNA_output17_I
*414 ANTENNA_output18_I
*415 ANTENNA_output19_I
*416 ANTENNA_output20_I
*417 ANTENNA_output21_I
*418 ANTENNA_output22_I
*419 ANTENNA_output23_I
*420 ANTENNA_output36_I
*421 ANTENNA_output40_I
*422 ANTENNA_output41_I
*423 ANTENNA_output47_I
*424 FILLER_0_0_130
*425 FILLER_0_0_134
*426 FILLER_0_0_164
*427 FILLER_0_0_169
*428 FILLER_0_0_198
*429 FILLER_0_0_2
*430 FILLER_0_0_202
*431 FILLER_0_0_232
*432 FILLER_0_0_236
*433 FILLER_0_0_266
*434 FILLER_0_0_274
*435 FILLER_0_0_276
*436 FILLER_0_0_279
*437 FILLER_0_0_31
*438 FILLER_0_0_33
*439 FILLER_0_0_36
*440 FILLER_0_0_4
*441 FILLER_0_0_63
*442 FILLER_0_0_65
*443 FILLER_0_0_96
*444 FILLER_0_10_102
*445 FILLER_0_10_104
*446 FILLER_0_10_107
*447 FILLER_0_10_115
*448 FILLER_0_10_177
*449 FILLER_0_10_181
*450 FILLER_0_10_204
*451 FILLER_0_10_214
*452 FILLER_0_10_218
*453 FILLER_0_10_242
*454 FILLER_0_10_244
*455 FILLER_0_10_247
*456 FILLER_0_10_251
*457 FILLER_0_10_253
*458 FILLER_0_10_256
*459 FILLER_0_10_260
*460 FILLER_0_10_28
*461 FILLER_0_10_32
*462 FILLER_0_10_34
*463 FILLER_0_10_37
*464 FILLER_0_10_41
*465 FILLER_0_10_43
*466 FILLER_0_10_78
*467 FILLER_0_10_94
*468 FILLER_0_11_101
*469 FILLER_0_11_109
*470 FILLER_0_11_113
*471 FILLER_0_11_115
*472 FILLER_0_11_124
*473 FILLER_0_11_128
*474 FILLER_0_11_135
*475 FILLER_0_11_139
*476 FILLER_0_11_142
*477 FILLER_0_11_150
*478 FILLER_0_11_152
*479 FILLER_0_11_209
*480 FILLER_0_11_245
*481 FILLER_0_11_247
*482 FILLER_0_11_282
*483 FILLER_0_11_286
*484 FILLER_0_11_56
*485 FILLER_0_11_60
*486 FILLER_0_11_64
*487 FILLER_0_11_68
*488 FILLER_0_11_78
*489 FILLER_0_11_86
*490 FILLER_0_12_101
*491 FILLER_0_12_113
*492 FILLER_0_12_115
*493 FILLER_0_12_124
*494 FILLER_0_12_136
*495 FILLER_0_12_152
*496 FILLER_0_12_165
*497 FILLER_0_12_192
*498 FILLER_0_12_196
*499 FILLER_0_12_2
*500 FILLER_0_12_20
*501 FILLER_0_12_210
*502 FILLER_0_12_220
*503 FILLER_0_12_236
*504 FILLER_0_12_244
*505 FILLER_0_12_28
*506 FILLER_0_12_32
*507 FILLER_0_12_34
*508 FILLER_0_12_37
*509 FILLER_0_12_46
*510 FILLER_0_12_50
*511 FILLER_0_12_54
*512 FILLER_0_12_56
*513 FILLER_0_13_100
*514 FILLER_0_13_104
*515 FILLER_0_13_142
*516 FILLER_0_13_158
*517 FILLER_0_13_16
*518 FILLER_0_13_160
*519 FILLER_0_13_167
*520 FILLER_0_13_169
*521 FILLER_0_13_2
*522 FILLER_0_13_206
*523 FILLER_0_13_212
*524 FILLER_0_13_228
*525 FILLER_0_13_290
*526 FILLER_0_13_294
*527 FILLER_0_13_43
*528 FILLER_0_13_48
*529 FILLER_0_13_52
*530 FILLER_0_13_56
*531 FILLER_0_13_58
*532 FILLER_0_13_6
*533 FILLER_0_13_65
*534 FILLER_0_13_69
*535 FILLER_0_13_72
*536 FILLER_0_13_80
*537 FILLER_0_13_96
*538 FILLER_0_14_103
*539 FILLER_0_14_107
*540 FILLER_0_14_123
*541 FILLER_0_14_127
*542 FILLER_0_14_165
*543 FILLER_0_14_167
*544 FILLER_0_14_174
*545 FILLER_0_14_177
*546 FILLER_0_14_181
*547 FILLER_0_14_185
*548 FILLER_0_14_195
*549 FILLER_0_14_235
*550 FILLER_0_14_243
*551 FILLER_0_14_263
*552 FILLER_0_14_267
*553 FILLER_0_14_32
*554 FILLER_0_14_34
*555 FILLER_0_14_50
*556 FILLER_0_14_54
*557 FILLER_0_14_8
*558 FILLER_0_14_81
*559 FILLER_0_14_91
*560 FILLER_0_14_99
*561 FILLER_0_15_10
*562 FILLER_0_15_116
*563 FILLER_0_15_124
*564 FILLER_0_15_138
*565 FILLER_0_15_14
*566 FILLER_0_15_142
*567 FILLER_0_15_150
*568 FILLER_0_15_154
*569 FILLER_0_15_16
*570 FILLER_0_15_180
*571 FILLER_0_15_188
*572 FILLER_0_15_190
*573 FILLER_0_15_2
*574 FILLER_0_15_201
*575 FILLER_0_15_205
*576 FILLER_0_15_209
*577 FILLER_0_15_212
*578 FILLER_0_15_228
*579 FILLER_0_15_232
*580 FILLER_0_15_235
*581 FILLER_0_15_243
*582 FILLER_0_15_282
*583 FILLER_0_15_290
*584 FILLER_0_15_294
*585 FILLER_0_15_59
*586 FILLER_0_15_67
*587 FILLER_0_15_69
*588 FILLER_0_15_72
*589 FILLER_0_16_107
*590 FILLER_0_16_115
*591 FILLER_0_16_119
*592 FILLER_0_16_154
*593 FILLER_0_16_172
*594 FILLER_0_16_174
*595 FILLER_0_16_192
*596 FILLER_0_16_241
*597 FILLER_0_16_255
*598 FILLER_0_16_259
*599 FILLER_0_16_28
*600 FILLER_0_16_32
*601 FILLER_0_16_34
*602 FILLER_0_16_37
*603 FILLER_0_16_41
*604 FILLER_0_16_48
*605 FILLER_0_16_50
*606 FILLER_0_16_57
*607 FILLER_0_16_73
*608 FILLER_0_16_89
*609 FILLER_0_17_104
*610 FILLER_0_17_120
*611 FILLER_0_17_122
*612 FILLER_0_17_133
*613 FILLER_0_17_137
*614 FILLER_0_17_139
*615 FILLER_0_17_142
*616 FILLER_0_17_150
*617 FILLER_0_17_161
*618 FILLER_0_17_165
*619 FILLER_0_17_200
*620 FILLER_0_17_208
*621 FILLER_0_17_218
*622 FILLER_0_17_226
*623 FILLER_0_17_230
*624 FILLER_0_17_237
*625 FILLER_0_17_282
*626 FILLER_0_17_286
*627 FILLER_0_17_38
*628 FILLER_0_17_46
*629 FILLER_0_17_56
*630 FILLER_0_17_64
*631 FILLER_0_17_68
*632 FILLER_0_17_72
*633 FILLER_0_18_100
*634 FILLER_0_18_104
*635 FILLER_0_18_107
*636 FILLER_0_18_139
*637 FILLER_0_18_155
*638 FILLER_0_18_157
*639 FILLER_0_18_171
*640 FILLER_0_18_177
*641 FILLER_0_18_2
*642 FILLER_0_18_209
*643 FILLER_0_18_217
*644 FILLER_0_18_230
*645 FILLER_0_18_240
*646 FILLER_0_18_242
*647 FILLER_0_18_253
*648 FILLER_0_18_260
*649 FILLER_0_18_34
*650 FILLER_0_18_37
*651 FILLER_0_18_53
*652 FILLER_0_18_61
*653 FILLER_0_18_65
*654 FILLER_0_18_72
*655 FILLER_0_18_76
*656 FILLER_0_18_96
*657 FILLER_0_19_111
*658 FILLER_0_19_125
*659 FILLER_0_19_129
*660 FILLER_0_19_134
*661 FILLER_0_19_138
*662 FILLER_0_19_142
*663 FILLER_0_19_146
*664 FILLER_0_19_155
*665 FILLER_0_19_163
*666 FILLER_0_19_171
*667 FILLER_0_19_187
*668 FILLER_0_19_195
*669 FILLER_0_19_199
*670 FILLER_0_19_208
*671 FILLER_0_19_28
*672 FILLER_0_19_294
*673 FILLER_0_19_36
*674 FILLER_0_19_47
*675 FILLER_0_19_55
*676 FILLER_0_19_59
*677 FILLER_0_19_61
*678 FILLER_0_19_72
*679 FILLER_0_19_76
*680 FILLER_0_1_102
*681 FILLER_0_1_104
*682 FILLER_0_1_139
*683 FILLER_0_1_146
*684 FILLER_0_1_188
*685 FILLER_0_1_192
*686 FILLER_0_1_200
*687 FILLER_0_1_204
*688 FILLER_0_1_208
*689 FILLER_0_1_212
*690 FILLER_0_1_256
*691 FILLER_0_1_262
*692 FILLER_0_1_266
*693 FILLER_0_1_276
*694 FILLER_0_1_286
*695 FILLER_0_1_288
*696 FILLER_0_1_72
*697 FILLER_0_1_98
*698 FILLER_0_20_10
*699 FILLER_0_20_102
*700 FILLER_0_20_104
*701 FILLER_0_20_107
*702 FILLER_0_20_111
*703 FILLER_0_20_113
*704 FILLER_0_20_15
*705 FILLER_0_20_169
*706 FILLER_0_20_173
*707 FILLER_0_20_177
*708 FILLER_0_20_193
*709 FILLER_0_20_2
*710 FILLER_0_20_201
*711 FILLER_0_20_212
*712 FILLER_0_20_287
*713 FILLER_0_20_31
*714 FILLER_0_20_79
*715 FILLER_0_20_83
*716 FILLER_0_20_87
*717 FILLER_0_20_91
*718 FILLER_0_20_93
*719 FILLER_0_20_98
*720 FILLER_0_21_125
*721 FILLER_0_21_133
*722 FILLER_0_21_137
*723 FILLER_0_21_139
*724 FILLER_0_21_142
*725 FILLER_0_21_150
*726 FILLER_0_21_154
*727 FILLER_0_21_156
*728 FILLER_0_21_166
*729 FILLER_0_21_202
*730 FILLER_0_21_206
*731 FILLER_0_21_28
*732 FILLER_0_21_282
*733 FILLER_0_21_286
*734 FILLER_0_21_294
*735 FILLER_0_21_60
*736 FILLER_0_21_68
*737 FILLER_0_21_78
*738 FILLER_0_22_102
*739 FILLER_0_22_104
*740 FILLER_0_22_107
*741 FILLER_0_22_128
*742 FILLER_0_22_172
*743 FILLER_0_22_174
*744 FILLER_0_22_177
*745 FILLER_0_22_28
*746 FILLER_0_22_32
*747 FILLER_0_22_34
*748 FILLER_0_22_37
*749 FILLER_0_22_39
*750 FILLER_0_22_82
*751 FILLER_0_22_86
*752 FILLER_0_23_105
*753 FILLER_0_23_150
*754 FILLER_0_23_168
*755 FILLER_0_23_174
*756 FILLER_0_23_209
*757 FILLER_0_23_228
*758 FILLER_0_23_270
*759 FILLER_0_23_274
*760 FILLER_0_23_278
*761 FILLER_0_23_282
*762 FILLER_0_23_290
*763 FILLER_0_23_294
*764 FILLER_0_23_36
*765 FILLER_0_23_40
*766 FILLER_0_23_44
*767 FILLER_0_23_60
*768 FILLER_0_23_64
*769 FILLER_0_23_72
*770 FILLER_0_23_88
*771 FILLER_0_23_92
*772 FILLER_0_23_94
*773 FILLER_0_24_100
*774 FILLER_0_24_130
*775 FILLER_0_24_134
*776 FILLER_0_24_164
*777 FILLER_0_24_168
*778 FILLER_0_24_198
*779 FILLER_0_24_2
*780 FILLER_0_24_202
*781 FILLER_0_24_266
*782 FILLER_0_24_270
*783 FILLER_0_24_274
*784 FILLER_0_24_290
*785 FILLER_0_24_294
*786 FILLER_0_24_31
*787 FILLER_0_24_33
*788 FILLER_0_24_36
*789 FILLER_0_24_4
*790 FILLER_0_24_63
*791 FILLER_0_24_67
*792 FILLER_0_24_96
*793 FILLER_0_2_101
*794 FILLER_0_2_111
*795 FILLER_0_2_127
*796 FILLER_0_2_165
*797 FILLER_0_2_171
*798 FILLER_0_2_177
*799 FILLER_0_2_247
*800 FILLER_0_2_258
*801 FILLER_0_2_260
*802 FILLER_0_2_32
*803 FILLER_0_2_34
*804 FILLER_0_2_37
*805 FILLER_0_2_46
*806 FILLER_0_2_50
*807 FILLER_0_2_52
*808 FILLER_0_2_93
*809 FILLER_0_3_142
*810 FILLER_0_3_148
*811 FILLER_0_3_172
*812 FILLER_0_3_2
*813 FILLER_0_3_204
*814 FILLER_0_3_208
*815 FILLER_0_3_212
*816 FILLER_0_3_216
*817 FILLER_0_3_218
*818 FILLER_0_3_221
*819 FILLER_0_3_237
*820 FILLER_0_3_282
*821 FILLER_0_3_286
*822 FILLER_0_3_50
*823 FILLER_0_3_54
*824 FILLER_0_3_58
*825 FILLER_0_3_6
*826 FILLER_0_3_60
*827 FILLER_0_3_67
*828 FILLER_0_3_69
*829 FILLER_0_3_78
*830 FILLER_0_4_103
*831 FILLER_0_4_107
*832 FILLER_0_4_123
*833 FILLER_0_4_127
*834 FILLER_0_4_144
*835 FILLER_0_4_152
*836 FILLER_0_4_156
*837 FILLER_0_4_172
*838 FILLER_0_4_174
*839 FILLER_0_4_177
*840 FILLER_0_4_185
*841 FILLER_0_4_197
*842 FILLER_0_4_213
*843 FILLER_0_4_221
*844 FILLER_0_4_247
*845 FILLER_0_4_28
*846 FILLER_0_4_32
*847 FILLER_0_4_34
*848 FILLER_0_4_49
*849 FILLER_0_4_91
*850 FILLER_0_4_99
*851 FILLER_0_5_109
*852 FILLER_0_5_117
*853 FILLER_0_5_121
*854 FILLER_0_5_128
*855 FILLER_0_5_136
*856 FILLER_0_5_148
*857 FILLER_0_5_164
*858 FILLER_0_5_172
*859 FILLER_0_5_181
*860 FILLER_0_5_185
*861 FILLER_0_5_198
*862 FILLER_0_5_2
*863 FILLER_0_5_206
*864 FILLER_0_5_212
*865 FILLER_0_5_216
*866 FILLER_0_5_219
*867 FILLER_0_5_223
*868 FILLER_0_5_237
*869 FILLER_0_5_239
*870 FILLER_0_5_282
*871 FILLER_0_5_284
*872 FILLER_0_5_54
*873 FILLER_0_5_72
*874 FILLER_0_5_88
*875 FILLER_0_5_92
*876 FILLER_0_5_98
*877 FILLER_0_6_166
*878 FILLER_0_6_170
*879 FILLER_0_6_174
*880 FILLER_0_6_177
*881 FILLER_0_6_227
*882 FILLER_0_6_231
*883 FILLER_0_6_239
*884 FILLER_0_6_243
*885 FILLER_0_6_262
*886 FILLER_0_6_34
*887 FILLER_0_6_37
*888 FILLER_0_6_47
*889 FILLER_0_6_79
*890 FILLER_0_6_83
*891 FILLER_0_6_90
*892 FILLER_0_6_98
*893 FILLER_0_7_10
*894 FILLER_0_7_104
*895 FILLER_0_7_12
*896 FILLER_0_7_120
*897 FILLER_0_7_122
*898 FILLER_0_7_146
*899 FILLER_0_7_150
*900 FILLER_0_7_152
*901 FILLER_0_7_162
*902 FILLER_0_7_195
*903 FILLER_0_7_199
*904 FILLER_0_7_201
*905 FILLER_0_7_212
*906 FILLER_0_7_214
*907 FILLER_0_7_229
*908 FILLER_0_7_233
*909 FILLER_0_7_237
*910 FILLER_0_7_239
*911 FILLER_0_7_282
*912 FILLER_0_7_55
*913 FILLER_0_7_59
*914 FILLER_0_7_67
*915 FILLER_0_7_69
*916 FILLER_0_7_72
*917 FILLER_0_8_104
*918 FILLER_0_8_107
*919 FILLER_0_8_127
*920 FILLER_0_8_131
*921 FILLER_0_8_138
*922 FILLER_0_8_156
*923 FILLER_0_8_164
*924 FILLER_0_8_166
*925 FILLER_0_8_2
*926 FILLER_0_8_20
*927 FILLER_0_8_204
*928 FILLER_0_8_239
*929 FILLER_0_8_24
*930 FILLER_0_8_243
*931 FILLER_0_8_247
*932 FILLER_0_8_263
*933 FILLER_0_8_267
*934 FILLER_0_8_32
*935 FILLER_0_8_34
*936 FILLER_0_8_37
*937 FILLER_0_8_53
*938 FILLER_0_8_57
*939 FILLER_0_9_105
*940 FILLER_0_9_113
*941 FILLER_0_9_122
*942 FILLER_0_9_139
*943 FILLER_0_9_142
*944 FILLER_0_9_164
*945 FILLER_0_9_166
*946 FILLER_0_9_212
*947 FILLER_0_9_214
*948 FILLER_0_9_223
*949 FILLER_0_9_231
*950 FILLER_0_9_266
*951 FILLER_0_9_270
*952 FILLER_0_9_278
*953 FILLER_0_9_28
*954 FILLER_0_9_282
*955 FILLER_0_9_290
*956 FILLER_0_9_294
*957 FILLER_0_9_60
*958 FILLER_0_9_68
*959 FILLER_0_9_72
*960 FILLER_0_9_88
*961 PHY_EDGE_ROW_0_Left_25
*962 PHY_EDGE_ROW_0_Right_0
*963 PHY_EDGE_ROW_10_Left_35
*964 PHY_EDGE_ROW_10_Right_10
*965 PHY_EDGE_ROW_11_Left_36
*966 PHY_EDGE_ROW_11_Right_11
*967 PHY_EDGE_ROW_12_Left_37
*968 PHY_EDGE_ROW_12_Right_12
*969 PHY_EDGE_ROW_13_Left_38
*970 PHY_EDGE_ROW_13_Right_13
*971 PHY_EDGE_ROW_14_Left_39
*972 PHY_EDGE_ROW_14_Right_14
*973 PHY_EDGE_ROW_15_Left_40
*974 PHY_EDGE_ROW_15_Right_15
*975 PHY_EDGE_ROW_16_Left_41
*976 PHY_EDGE_ROW_16_Right_16
*977 PHY_EDGE_ROW_17_Left_42
*978 PHY_EDGE_ROW_17_Right_17
*979 PHY_EDGE_ROW_18_Left_43
*980 PHY_EDGE_ROW_18_Right_18
*981 PHY_EDGE_ROW_19_Left_44
*982 PHY_EDGE_ROW_19_Right_19
*983 PHY_EDGE_ROW_1_Left_26
*984 PHY_EDGE_ROW_1_Right_1
*985 PHY_EDGE_ROW_20_Left_45
*986 PHY_EDGE_ROW_20_Right_20
*987 PHY_EDGE_ROW_21_Left_46
*988 PHY_EDGE_ROW_21_Right_21
*989 PHY_EDGE_ROW_22_Left_47
*990 PHY_EDGE_ROW_22_Right_22
*991 PHY_EDGE_ROW_23_Left_48
*992 PHY_EDGE_ROW_23_Right_23
*993 PHY_EDGE_ROW_24_Left_49
*994 PHY_EDGE_ROW_24_Right_24
*995 PHY_EDGE_ROW_2_Left_27
*996 PHY_EDGE_ROW_2_Right_2
*997 PHY_EDGE_ROW_3_Left_28
*998 PHY_EDGE_ROW_3_Right_3
*999 PHY_EDGE_ROW_4_Left_29
*1000 PHY_EDGE_ROW_4_Right_4
*1001 PHY_EDGE_ROW_5_Left_30
*1002 PHY_EDGE_ROW_5_Right_5
*1003 PHY_EDGE_ROW_6_Left_31
*1004 PHY_EDGE_ROW_6_Right_6
*1005 PHY_EDGE_ROW_7_Left_32
*1006 PHY_EDGE_ROW_7_Right_7
*1007 PHY_EDGE_ROW_8_Left_33
*1008 PHY_EDGE_ROW_8_Right_8
*1009 PHY_EDGE_ROW_9_Left_34
*1010 PHY_EDGE_ROW_9_Right_9
*1011 TAP_TAPCELL_ROW_0_50
*1012 TAP_TAPCELL_ROW_0_51
*1013 TAP_TAPCELL_ROW_0_52
*1014 TAP_TAPCELL_ROW_0_53
*1015 TAP_TAPCELL_ROW_0_54
*1016 TAP_TAPCELL_ROW_0_55
*1017 TAP_TAPCELL_ROW_0_56
*1018 TAP_TAPCELL_ROW_0_57
*1019 TAP_TAPCELL_ROW_10_94
*1020 TAP_TAPCELL_ROW_10_95
*1021 TAP_TAPCELL_ROW_10_96
*1022 TAP_TAPCELL_ROW_10_97
*1023 TAP_TAPCELL_ROW_11_100
*1024 TAP_TAPCELL_ROW_11_101
*1025 TAP_TAPCELL_ROW_11_98
*1026 TAP_TAPCELL_ROW_11_99
*1027 TAP_TAPCELL_ROW_12_102
*1028 TAP_TAPCELL_ROW_12_103
*1029 TAP_TAPCELL_ROW_12_104
*1030 TAP_TAPCELL_ROW_12_105
*1031 TAP_TAPCELL_ROW_13_106
*1032 TAP_TAPCELL_ROW_13_107
*1033 TAP_TAPCELL_ROW_13_108
*1034 TAP_TAPCELL_ROW_13_109
*1035 TAP_TAPCELL_ROW_14_110
*1036 TAP_TAPCELL_ROW_14_111
*1037 TAP_TAPCELL_ROW_14_112
*1038 TAP_TAPCELL_ROW_14_113
*1039 TAP_TAPCELL_ROW_15_114
*1040 TAP_TAPCELL_ROW_15_115
*1041 TAP_TAPCELL_ROW_15_116
*1042 TAP_TAPCELL_ROW_15_117
*1043 TAP_TAPCELL_ROW_16_118
*1044 TAP_TAPCELL_ROW_16_119
*1045 TAP_TAPCELL_ROW_16_120
*1046 TAP_TAPCELL_ROW_16_121
*1047 TAP_TAPCELL_ROW_17_122
*1048 TAP_TAPCELL_ROW_17_123
*1049 TAP_TAPCELL_ROW_17_124
*1050 TAP_TAPCELL_ROW_17_125
*1051 TAP_TAPCELL_ROW_18_126
*1052 TAP_TAPCELL_ROW_18_127
*1053 TAP_TAPCELL_ROW_18_128
*1054 TAP_TAPCELL_ROW_18_129
*1055 TAP_TAPCELL_ROW_19_130
*1056 TAP_TAPCELL_ROW_19_131
*1057 TAP_TAPCELL_ROW_19_132
*1058 TAP_TAPCELL_ROW_19_133
*1059 TAP_TAPCELL_ROW_1_58
*1060 TAP_TAPCELL_ROW_1_59
*1061 TAP_TAPCELL_ROW_1_60
*1062 TAP_TAPCELL_ROW_1_61
*1063 TAP_TAPCELL_ROW_20_134
*1064 TAP_TAPCELL_ROW_20_135
*1065 TAP_TAPCELL_ROW_20_136
*1066 TAP_TAPCELL_ROW_20_137
*1067 TAP_TAPCELL_ROW_21_138
*1068 TAP_TAPCELL_ROW_21_139
*1069 TAP_TAPCELL_ROW_21_140
*1070 TAP_TAPCELL_ROW_21_141
*1071 TAP_TAPCELL_ROW_22_142
*1072 TAP_TAPCELL_ROW_22_143
*1073 TAP_TAPCELL_ROW_22_144
*1074 TAP_TAPCELL_ROW_22_145
*1075 TAP_TAPCELL_ROW_23_146
*1076 TAP_TAPCELL_ROW_23_147
*1077 TAP_TAPCELL_ROW_23_148
*1078 TAP_TAPCELL_ROW_23_149
*1079 TAP_TAPCELL_ROW_24_150
*1080 TAP_TAPCELL_ROW_24_151
*1081 TAP_TAPCELL_ROW_24_152
*1082 TAP_TAPCELL_ROW_24_153
*1083 TAP_TAPCELL_ROW_24_154
*1084 TAP_TAPCELL_ROW_24_155
*1085 TAP_TAPCELL_ROW_24_156
*1086 TAP_TAPCELL_ROW_24_157
*1087 TAP_TAPCELL_ROW_2_62
*1088 TAP_TAPCELL_ROW_2_63
*1089 TAP_TAPCELL_ROW_2_64
*1090 TAP_TAPCELL_ROW_2_65
*1091 TAP_TAPCELL_ROW_3_66
*1092 TAP_TAPCELL_ROW_3_67
*1093 TAP_TAPCELL_ROW_3_68
*1094 TAP_TAPCELL_ROW_3_69
*1095 TAP_TAPCELL_ROW_4_70
*1096 TAP_TAPCELL_ROW_4_71
*1097 TAP_TAPCELL_ROW_4_72
*1098 TAP_TAPCELL_ROW_4_73
*1099 TAP_TAPCELL_ROW_5_74
*1100 TAP_TAPCELL_ROW_5_75
*1101 TAP_TAPCELL_ROW_5_76
*1102 TAP_TAPCELL_ROW_5_77
*1103 TAP_TAPCELL_ROW_6_78
*1104 TAP_TAPCELL_ROW_6_79
*1105 TAP_TAPCELL_ROW_6_80
*1106 TAP_TAPCELL_ROW_6_81
*1107 TAP_TAPCELL_ROW_7_82
*1108 TAP_TAPCELL_ROW_7_83
*1109 TAP_TAPCELL_ROW_7_84
*1110 TAP_TAPCELL_ROW_7_85
*1111 TAP_TAPCELL_ROW_8_86
*1112 TAP_TAPCELL_ROW_8_87
*1113 TAP_TAPCELL_ROW_8_88
*1114 TAP_TAPCELL_ROW_8_89
*1115 TAP_TAPCELL_ROW_9_90
*1116 TAP_TAPCELL_ROW_9_91
*1117 TAP_TAPCELL_ROW_9_92
*1118 TAP_TAPCELL_ROW_9_93
*1119 _189_
*1120 _190_
*1121 _191_
*1122 _192_
*1123 _193_
*1124 _194_
*1125 _195_
*1126 _196_
*1127 _197_
*1128 _198_
*1129 _199_
*1130 _200_
*1131 _201_
*1132 _202_
*1133 _203_
*1134 _204_
*1135 _205_
*1136 _206_
*1137 _207_
*1138 _208_
*1139 _209_
*1140 _210_
*1141 _211_
*1142 _212_
*1143 _213_
*1144 _214_
*1145 _215_
*1146 _216_
*1147 _217_
*1148 _218_
*1149 _219_
*1150 _220_
*1151 _221_
*1152 _222_
*1153 _223_
*1154 _224_
*1155 _225_
*1156 _226_
*1157 _227_
*1158 _228_
*1159 _229_
*1160 _230_
*1161 _231_
*1162 _232_
*1163 _233_
*1164 _234_
*1165 _235_
*1166 _236_
*1167 _237_
*1168 _238_
*1169 _239_
*1170 _240_
*1171 _241_
*1172 _242_
*1173 _243_
*1174 _244_
*1175 _245_
*1176 _246_
*1177 _247_
*1178 _248_
*1179 _249_
*1180 _250_
*1181 _251_
*1182 _252_
*1183 _253_
*1184 _254_
*1185 _255_
*1186 _256_
*1187 _257_
*1188 _258_
*1189 _259_
*1190 _260_
*1191 _261_
*1192 _262_
*1193 _263_
*1194 _264_
*1195 _265_
*1196 _266_
*1197 _267_
*1198 _268_
*1199 _269_
*1200 _270_
*1201 _271_
*1202 _272_
*1203 _273_
*1204 _274_
*1205 _275_
*1206 _276_
*1207 _277_
*1208 _278_
*1209 _279_
*1210 _280_
*1211 _281_
*1212 _282_
*1213 _283_
*1214 _284_
*1215 _285_
*1216 _286_
*1217 _287_
*1218 _288_
*1219 _289_
*1220 _290_
*1221 _291_
*1222 _292_
*1223 _293_
*1224 _294_
*1225 _295_
*1226 _296_
*1227 _297_
*1228 _298_
*1229 _299_
*1230 _300_
*1231 _301_
*1232 _302_
*1233 _303_
*1234 _304_
*1235 _305_
*1236 _306_
*1237 _307_
*1238 _308_
*1239 _309_
*1240 _310_
*1241 _311_
*1242 _312_
*1243 _313_
*1244 _314_
*1245 _315_
*1246 _316_
*1247 _317_
*1248 _318_
*1249 _319_
*1250 _320_
*1251 _321_
*1252 _322_
*1253 _323_
*1254 _324_
*1255 _325_
*1256 _326_
*1257 _327_
*1258 _328_
*1259 _329_
*1260 _330_
*1261 _331_
*1262 _332_
*1263 _333_
*1264 _334_
*1265 _335_
*1266 _336_
*1267 _337_
*1268 _338_
*1269 _339_
*1270 _340_
*1271 _341_
*1272 _342_
*1273 _343_
*1274 _344_
*1275 _345_
*1276 _346_
*1277 _347_
*1278 _348_
*1279 _349_
*1280 _350_
*1281 _351_
*1282 _352_
*1283 _353_
*1284 _354_
*1285 _355_
*1286 _356_
*1287 _357_
*1288 _358_
*1289 _359_
*1290 _360_
*1291 _361_
*1292 _362_
*1293 _363_
*1294 _364_
*1295 _365_
*1296 _366_
*1297 _367_
*1298 _368_
*1299 _369_
*1300 _370_
*1301 _371_
*1302 _372_
*1303 _373_
*1304 _374_
*1305 _375_
*1306 _376_
*1307 _377_
*1308 _378_
*1309 _379_
*1310 _380_
*1311 _381_
*1312 _382_
*1313 _383_
*1314 _384_
*1315 _385_
*1316 _386_
*1317 _387_
*1318 _388_
*1319 _389_
*1320 _390_
*1321 _391_
*1322 _392_
*1323 _393_
*1324 _394_
*1325 _395_
*1326 _396_
*1327 _397_
*1328 _398_
*1329 _399_
*1330 _400_
*1331 _401_
*1332 _402_
*1333 _403_
*1334 _404_
*1335 _405_
*1336 _406_
*1337 _407_
*1338 _408_
*1339 _409_
*1340 _410_
*1341 _411_
*1342 _412_
*1343 _413_
*1344 _414_
*1345 _415_
*1346 _416_
*1347 _417_
*1348 _418_
*1349 _419_
*1350 _420_
*1351 _421_
*1352 _422_
*1353 _423_
*1354 _424_
*1355 _425_
*1356 _426_
*1357 _427_
*1358 _428_
*1359 _429_
*1360 _430_
*1361 _431_
*1362 _432_
*1363 _433_
*1364 _434_
*1365 _435_
*1366 _436_
*1367 _437_
*1368 _438_
*1369 _439_
*1370 _440_
*1371 _441_
*1372 _442_
*1373 _443_
*1374 _444_
*1375 _445_
*1376 _446_
*1377 _447_
*1378 _448_
*1379 _449_
*1380 _450_
*1381 _451_
*1382 _452_
*1383 _453_
*1384 fanout49
*1385 fanout50
*1386 fanout51
*1387 fanout52
*1388 fanout53
*1389 fanout54
*1390 fanout55
*1391 fanout56
*1392 fanout57
*1393 fanout58
*1394 fanout59
*1395 fanout60
*1396 fanout61
*1397 fanout62
*1398 fanout63
*1399 fanout64
*1400 fanout65
*1401 fanout66
*1402 fanout67
*1403 fanout68
*1404 fanout69
*1405 fanout70
*1406 fanout71
*1407 fanout72
*1408 fanout73
*1409 fanout74
*1410 fanout75
*1411 fanout76
*1412 fanout77
*1413 fanout78
*1414 fanout79
*1415 fanout80
*1416 fanout81
*1417 fanout82
*1418 input1
*1419 input2
*1420 input3
*1421 input4
*1422 input5
*1423 output10
*1424 output11
*1425 output12
*1426 output13
*1427 output14
*1428 output15
*1429 output16
*1430 output17
*1431 output18
*1432 output19
*1433 output20
*1434 output21
*1435 output22
*1436 output23
*1437 output24
*1438 output25
*1439 output26
*1440 output27
*1441 output28
*1442 output29
*1443 output30
*1444 output31
*1445 output32
*1446 output33
*1447 output34
*1448 output35
*1449 output36
*1450 output37
*1451 output38
*1452 output39
*1453 output40
*1454 output41
*1455 output42
*1456 output43
*1457 output44
*1458 output45
*1459 output46
*1460 output47
*1461 output48
*1462 output6
*1463 output7
*1464 output8
*1465 output9

*PORTS
cal I
clk I
clkc O
comp I
ctln[0] O
ctln[1] O
ctln[2] O
ctln[3] O
ctln[4] O
ctln[5] O
ctln[6] O
ctln[7] O
ctln[8] O
ctln[9] O
ctlp[0] O
ctlp[1] O
ctlp[2] O
ctlp[3] O
ctlp[4] O
ctlp[5] O
ctlp[6] O
ctlp[7] O
ctlp[8] O
ctlp[9] O
en I
result[0] O
result[1] O
result[2] O
result[3] O
result[4] O
result[5] O
result[6] O
result[7] O
result[8] O
result[9] O
rstn I
sample O
trim[0] O
trim[1] O
trim[2] O
trim[3] O
trim[4] O
trimb[0] O
trimb[1] O
trimb[2] O
trimb[3] O
trimb[4] O
valid O

*D_NET *1 0.00258998
*CONN
*P cal I
*I *1418:I I *D gf180mcu_fd_sc_mcu7t5v0__clkbuf_1
*I *406:I I *D gf180mcu_fd_sc_mcu7t5v0__antenna
*CAP
1 cal 0.000465888
2 *1418:I 0
3 *406:I 0.000270676
4 *1:9 0.000736564
5 *406:I ctln[1] 9.95869e-05
6 *406:I *409:I 0
7 *406:I *1392:I 0
8 *406:I *1464:I 0.000285856
9 *406:I *293:22 0
10 *1:9 *402:I 0.000159942
11 *1:9 *1235:A1 0.000323712
12 *1:9 *1417:I 3.25336e-05
13 *1:9 *25:11 0.000194266
14 *1:9 *245:8 2.09512e-05
*RES
1 cal *1:9 8.414 
2 *1:9 *406:I 15.552 
3 *1:9 *1418:I 4.5 
*END

*D_NET *2 0.0021954
*CONN
*P clk I
*I *1419:I I *D gf180mcu_fd_sc_mcu7t5v0__clkbuf_1
*I *407:I I *D gf180mcu_fd_sc_mcu7t5v0__antenna
*CAP
1 clk 0.000318873
2 *1419:I 0
3 *407:I 0.000291267
4 *2:9 0.00061014
5 *407:I ctln[1] 0.000126281
6 *407:I *410:I 0.000469567
7 *2:9 ctln[1] 0.000379274
*RES
1 clk *2:9 7.046 
2 *2:9 *407:I 15.856 
3 *2:9 *1419:I 4.5 
*END

*D_NET *3 0.000751131
*CONN
*P clkc O
*I *1462:Z O *D gf180mcu_fd_sc_mcu7t5v0__buf_8
*CAP
1 clkc 0.000334651
2 *1462:Z 0.000334651
3 clkc *1457:I 8.18282e-05
*RES
1 *1462:Z clkc 11.242 
*END

*D_NET *4 0.000778739
*CONN
*P comp I
*I *1420:I I *D gf180mcu_fd_sc_mcu7t5v0__clkbuf_1
*I *408:I I *D gf180mcu_fd_sc_mcu7t5v0__antenna
*CAP
1 comp 0.000221988
2 *1420:I 0.000116574
3 *408:I 0
4 *4:7 0.000338563
5 *1420:I *1457:I 5.65687e-05
6 *1420:I *282:10 4.50449e-05
*RES
1 comp *4:7 6.058 
2 *4:7 *408:I 4.5 
3 *4:7 *1420:I 5.336 
*END

*D_NET *5 0.00142626
*CONN
*P ctln[0] O
*I *1463:Z O *D gf180mcu_fd_sc_mcu7t5v0__buf_8
*CAP
1 ctln[0] 0.000713129
2 *1463:Z 0.000713129
3 ctln[0] trim[3] 0
*RES
1 *1463:Z ctln[0] 9.25 
*END

*D_NET *6 0.00584146
*CONN
*P ctln[1] O
*I *1464:Z O *D gf180mcu_fd_sc_mcu7t5v0__buf_8
*CAP
1 ctln[1] 0.00144378
2 *1464:Z 0.00144378
3 ctln[1] ctln[3] 0.00104814
4 ctln[1] *410:I 0.00045571
5 ctln[1] *1341:D 7.36325e-05
6 ctln[1] *1341:CLK 0.000100055
7 ctln[1] *1417:I 5.47994e-05
8 ctln[1] *1464:I 0.000616423
9 ctln[1] *36:9 0
10 *406:I ctln[1] 9.95869e-05
11 *407:I ctln[1] 0.000126281
12 *2:9 ctln[1] 0.000379274
*RES
1 *1464:Z ctln[1] 28.13 
*END

*D_NET *7 0.00242238
*CONN
*P ctln[2] O
*I *1465:Z O *D gf180mcu_fd_sc_mcu7t5v0__buf_8
*CAP
1 ctln[2] 0.00118912
2 *1465:Z 0.00118912
3 ctln[2] *1127:I 5.35644e-06
4 ctln[2] *270:46 3.87828e-05
*RES
1 *1465:Z ctln[2] 12.822 
*END

*D_NET *8 0.00354606
*CONN
*P ctln[3] O
*I *1423:Z O *D gf180mcu_fd_sc_mcu7t5v0__buf_8
*CAP
1 ctln[3] 0.000743459
2 *1423:Z 0.000743459
3 ctln[3] *1341:CLK 3.32447e-05
4 ctln[3] *1423:I 0.000977764
5 ctln[1] ctln[3] 0.00104814
*RES
1 *1423:Z ctln[3] 20.91 
*END

*D_NET *9 0.00232685
*CONN
*P ctln[4] O
*I *1424:Z O *D gf180mcu_fd_sc_mcu7t5v0__buf_8
*CAP
1 ctln[4] 0.00109384
2 *1424:Z 0.00109384
3 ctln[4] *1424:I 0.000139175
*RES
1 *1424:Z ctln[4] 20.606 
*END

*D_NET *10 0.00235855
*CONN
*P ctln[5] O
*I *1425:Z O *D gf180mcu_fd_sc_mcu7t5v0__buf_8
*CAP
1 ctln[5] 0.000926252
2 *1425:Z 0.000926252
3 ctln[5] *1136:I 9.88736e-06
4 ctln[5] *1378:D 8.32592e-05
5 ctln[5] *1378:RN 0
6 ctln[5] *1425:I 0.000412903
*RES
1 *1425:Z ctln[5] 20.454 
*END

*D_NET *11 0.00212095
*CONN
*P ctln[6] O
*I *1426:Z O *D gf180mcu_fd_sc_mcu7t5v0__buf_8
*CAP
1 ctln[6] 0.00106047
2 *1426:Z 0.00106047
3 ctln[6] *1378:D 0
*RES
1 *1426:Z ctln[6] 20.454 
*END

*D_NET *12 0.00214066
*CONN
*P ctln[7] O
*I *1427:Z O *D gf180mcu_fd_sc_mcu7t5v0__buf_8
*CAP
1 ctln[7] 0.00105247
2 *1427:Z 0.00105247
3 ctln[7] *1427:I 9.60518e-06
4 ctln[7] *265:18 2.6126e-05
5 ctln[7] *307:14 0
6 ctln[7] *307:18 0
7 ctln[7] *348:10 0
*RES
1 *1427:Z ctln[7] 19.694 
*END

*D_NET *13 0.00191999
*CONN
*P ctln[8] O
*I *1428:Z O *D gf180mcu_fd_sc_mcu7t5v0__buf_8
*CAP
1 ctln[8] 0.000874682
2 *1428:Z 0.000874682
3 ctln[8] *412:I 3.08902e-05
4 ctln[8] *1169:I 0.000117474
5 ctln[8] *1428:I 2.22657e-05
*RES
1 *1428:Z ctln[8] 19.39 
*END

*D_NET *14 0.00184671
*CONN
*P ctln[9] O