*SPEF "ieee 1481-1999"
*DESIGN "user_project_wrapper"
*DATE "11:11:11 Fri 11 11, 1111"
*VENDOR "OpenRCX"
*PROGRAM "Parallel Extraction"
*VERSION "1.0"
*DESIGN_FLOW "NAME_SCOPE LOCAL" "PIN_CAP NONE"
*DIVIDER /
*DELIMITER :
*BUS_DELIMITER []
*T_UNIT 1 NS
*C_UNIT 1 PF
*R_UNIT 1 OHM
*L_UNIT 1 HENRY

*NAME_MAP
*1 io_in[0]
*2 io_in[10]
*3 io_in[11]
*4 io_in[12]
*5 io_in[13]
*6 io_in[14]
*7 io_in[15]
*8 io_in[16]
*9 io_in[17]
*10 io_in[18]
*11 io_in[19]
*12 io_in[1]
*13 io_in[20]
*14 io_in[21]
*15 io_in[22]
*16 io_in[23]
*17 io_in[24]
*18 io_in[25]
*19 io_in[26]
*20 io_in[27]
*21 io_in[28]
*22 io_in[29]
*23 io_in[2]
*24 io_in[30]
*25 io_in[31]
*26 io_in[32]
*27 io_in[33]
*28 io_in[34]
*29 io_in[35]
*30 io_in[36]
*31 io_in[37]
*32 io_in[3]
*33 io_in[4]
*34 io_in[5]
*35 io_in[6]
*36 io_in[7]
*37 io_in[8]
*38 io_in[9]
*39 io_oeb[0]
*40 io_oeb[10]
*41 io_oeb[11]
*42 io_oeb[12]
*43 io_oeb[13]
*44 io_oeb[14]
*45 io_oeb[15]
*46 io_oeb[16]
*47 io_oeb[17]
*48 io_oeb[18]
*49 io_oeb[19]
*50 io_oeb[1]
*51 io_oeb[20]
*52 io_oeb[21]
*53 io_oeb[22]
*54 io_oeb[23]
*55 io_oeb[24]
*56 io_oeb[25]
*57 io_oeb[26]
*58 io_oeb[27]
*59 io_oeb[28]
*60 io_oeb[29]
*61 io_oeb[2]
*62 io_oeb[30]
*63 io_oeb[31]
*64 io_oeb[32]
*65 io_oeb[33]
*66 io_oeb[34]
*67 io_oeb[35]
*68 io_oeb[36]
*69 io_oeb[37]
*70 io_oeb[3]
*71 io_oeb[4]
*72 io_oeb[5]
*73 io_oeb[6]
*74 io_oeb[7]
*75 io_oeb[8]
*76 io_oeb[9]
*77 io_out[0]
*78 io_out[10]
*79 io_out[11]
*80 io_out[12]
*81 io_out[13]
*82 io_out[14]
*83 io_out[15]
*84 io_out[16]
*85 io_out[17]
*86 io_out[18]
*87 io_out[19]
*88 io_out[1]
*89 io_out[20]
*90 io_out[21]
*91 io_out[22]
*92 io_out[23]
*93 io_out[24]
*94 io_out[25]
*95 io_out[26]
*96 io_out[27]
*97 io_out[28]
*98 io_out[29]
*99 io_out[2]
*100 io_out[30]
*101 io_out[31]
*102 io_out[32]
*103 io_out[33]
*104 io_out[34]
*105 io_out[35]
*106 io_out[36]
*107 io_out[37]
*108 io_out[3]
*109 io_out[4]
*110 io_out[5]
*111 io_out[6]
*112 io_out[7]
*113 io_out[8]
*114 io_out[9]
*115 la_data_in[0]
*116 la_data_in[10]
*117 la_data_in[11]
*118 la_data_in[12]
*119 la_data_in[13]
*120 la_data_in[14]
*121 la_data_in[15]
*122 la_data_in[16]
*123 la_data_in[17]
*124 la_data_in[18]
*125 la_data_in[19]
*126 la_data_in[1]
*127 la_data_in[20]
*128 la_data_in[21]
*129 la_data_in[22]
*130 la_data_in[23]
*131 la_data_in[24]
*132 la_data_in[25]
*133 la_data_in[26]
*134 la_data_in[27]
*135 la_data_in[28]
*136 la_data_in[29]
*137 la_data_in[2]
*138 la_data_in[30]
*139 la_data_in[31]
*140 la_data_in[32]
*141 la_data_in[33]
*142 la_data_in[34]
*143 la_data_in[35]
*144 la_data_in[36]
*145 la_data_in[37]
*146 la_data_in[38]
*147 la_data_in[39]
*148 la_data_in[3]
*149 la_data_in[40]
*150 la_data_in[41]
*151 la_data_in[42]
*152 la_data_in[43]
*153 la_data_in[44]
*154 la_data_in[45]
*155 la_data_in[46]
*156 la_data_in[47]
*157 la_data_in[48]
*158 la_data_in[49]
*159 la_data_in[4]
*160 la_data_in[50]
*161 la_data_in[51]
*162 la_data_in[52]
*163 la_data_in[53]
*164 la_data_in[54]
*165 la_data_in[55]
*166 la_data_in[56]
*167 la_data_in[57]
*168 la_data_in[58]
*169 la_data_in[59]
*170 la_data_in[5]
*171 la_data_in[60]
*172 la_data_in[61]
*173 la_data_in[62]
*174 la_data_in[63]
*175 la_data_in[6]
*176 la_data_in[7]
*177 la_data_in[8]
*178 la_data_in[9]
*179 la_data_out[0]
*180 la_data_out[10]
*181 la_data_out[11]
*182 la_data_out[12]
*183 la_data_out[13]
*184 la_data_out[14]
*185 la_data_out[15]
*186 la_data_out[16]
*187 la_data_out[17]
*188 la_data_out[18]
*189 la_data_out[19]
*190 la_data_out[1]
*191 la_data_out[20]
*192 la_data_out[21]
*193 la_data_out[22]
*194 la_data_out[23]
*195 la_data_out[24]
*196 la_data_out[25]
*197 la_data_out[26]
*198 la_data_out[27]
*199 la_data_out[28]
*200 la_data_out[29]
*201 la_data_out[2]
*202 la_data_out[30]
*203 la_data_out[31]
*204 la_data_out[32]
*205 la_data_out[33]
*206 la_data_out[34]
*207 la_data_out[35]
*208 la_data_out[36]
*209 la_data_out[37]
*210 la_data_out[38]
*211 la_data_out[39]
*212 la_data_out[3]
*213 la_data_out[40]
*214 la_data_out[41]
*215 la_data_out[42]
*216 la_data_out[43]
*217 la_data_out[44]
*218 la_data_out[45]
*219 la_data_out[46]
*220 la_data_out[47]
*221 la_data_out[48]
*222 la_data_out[49]
*223 la_data_out[4]
*224 la_data_out[50]
*225 la_data_out[51]
*226 la_data_out[52]
*227 la_data_out[53]
*228 la_data_out[54]
*229 la_data_out[55]
*230 la_data_out[56]
*231 la_data_out[57]
*232 la_data_out[58]
*233 la_data_out[59]
*234 la_data_out[5]
*235 la_data_out[60]
*236 la_data_out[61]
*237 la_data_out[62]
*238 la_data_out[63]
*239 la_data_out[6]
*240 la_data_out[7]
*241 la_data_out[8]
*242 la_data_out[9]
*243 la_oenb[0]
*244 la_oenb[10]
*245 la_oenb[11]
*246 la_oenb[12]
*247 la_oenb[13]
*248 la_oenb[14]
*249 la_oenb[15]
*250 la_oenb[16]
*251 la_oenb[17]
*252 la_oenb[18]
*253 la_oenb[19]
*254 la_oenb[1]
*255 la_oenb[20]
*256 la_oenb[21]
*257 la_oenb[22]
*258 la_oenb[23]
*259 la_oenb[24]
*260 la_oenb[25]
*261 la_oenb[26]
*262 la_oenb[27]
*263 la_oenb[28]
*264 la_oenb[29]
*265 la_oenb[2]
*266 la_oenb[30]
*267 la_oenb[31]
*268 la_oenb[32]
*269 la_oenb[33]
*270 la_oenb[34]
*271 la_oenb[35]
*272 la_oenb[36]
*273 la_oenb[37]
*274 la_oenb[38]
*275 la_oenb[39]
*276 la_oenb[3]
*277 la_oenb[40]
*278 la_oenb[41]
*279 la_oenb[42]
*280 la_oenb[43]
*281 la_oenb[44]
*282 la_oenb[45]
*283 la_oenb[46]
*284 la_oenb[47]
*285 la_oenb[48]
*286 la_oenb[49]
*287 la_oenb[4]
*288 la_oenb[50]
*289 la_oenb[51]
*290 la_oenb[52]
*291 la_oenb[53]
*292 la_oenb[54]
*293 la_oenb[55]
*294 la_oenb[56]
*295 la_oenb[57]
*296 la_oenb[58]
*297 la_oenb[59]
*298 la_oenb[5]
*299 la_oenb[60]
*300 la_oenb[61]
*301 la_oenb[62]
*302 la_oenb[63]
*303 la_oenb[6]
*304 la_oenb[7]
*305 la_oenb[8]
*306 la_oenb[9]
*307 user_clock2
*308 user_irq[0]
*309 user_irq[1]
*310 user_irq[2]
*313 wb_clk_i
*314 wb_rst_i
*315 wbs_ack_o
*316 wbs_adr_i[0]
*317 wbs_adr_i[10]
*318 wbs_adr_i[11]
*319 wbs_adr_i[12]
*320 wbs_adr_i[13]
*321 wbs_adr_i[14]
*322 wbs_adr_i[15]
*323 wbs_adr_i[16]
*324 wbs_adr_i[17]
*325 wbs_adr_i[18]
*326 wbs_adr_i[19]
*327 wbs_adr_i[1]
*328 wbs_adr_i[20]
*329 wbs_adr_i[21]
*330 wbs_adr_i[22]
*331 wbs_adr_i[23]
*332 wbs_adr_i[24]
*333 wbs_adr_i[25]
*334 wbs_adr_i[26]
*335 wbs_adr_i[27]
*336 wbs_adr_i[28]
*337 wbs_adr_i[29]
*338 wbs_adr_i[2]
*339 wbs_adr_i[30]
*340 wbs_adr_i[31]
*341 wbs_adr_i[3]
*342 wbs_adr_i[4]
*343 wbs_adr_i[5]
*344 wbs_adr_i[6]
*345 wbs_adr_i[7]
*346 wbs_adr_i[8]
*347 wbs_adr_i[9]
*348 wbs_cyc_i
*349 wbs_dat_i[0]
*350 wbs_dat_i[10]
*351 wbs_dat_i[11]
*352 wbs_dat_i[12]
*353 wbs_dat_i[13]
*354 wbs_dat_i[14]
*355 wbs_dat_i[15]
*356 wbs_dat_i[16]
*357 wbs_dat_i[17]
*358 wbs_dat_i[18]
*359 wbs_dat_i[19]
*360 wbs_dat_i[1]
*361 wbs_dat_i[20]
*362 wbs_dat_i[21]
*363 wbs_dat_i[22]
*364 wbs_dat_i[23]
*365 wbs_dat_i[24]
*366 wbs_dat_i[25]
*367 wbs_dat_i[26]
*368 wbs_dat_i[27]
*369 wbs_dat_i[28]
*370 wbs_dat_i[29]
*371 wbs_dat_i[2]
*372 wbs_dat_i[30]
*373 wbs_dat_i[31]
*374 wbs_dat_i[3]
*375 wbs_dat_i[4]
*376 wbs_dat_i[5]
*377 wbs_dat_i[6]
*378 wbs_dat_i[7]
*379 wbs_dat_i[8]
*380 wbs_dat_i[9]
*381 wbs_dat_o[0]
*382 wbs_dat_o[10]
*383 wbs_dat_o[11]
*384 wbs_dat_o[12]
*385 wbs_dat_o[13]
*386 wbs_dat_o[14]
*387 wbs_dat_o[15]
*388 wbs_dat_o[16]
*389 wbs_dat_o[17]
*390 wbs_dat_o[18]
*391 wbs_dat_o[19]
*392 wbs_dat_o[1]
*393 wbs_dat_o[20]
*394 wbs_dat_o[21]
*395 wbs_dat_o[22]
*396 wbs_dat_o[23]
*397 wbs_dat_o[24]
*398 wbs_dat_o[25]
*399 wbs_dat_o[26]
*400 wbs_dat_o[27]
*401 wbs_dat_o[28]
*402 wbs_dat_o[29]
*403 wbs_dat_o[2]
*404 wbs_dat_o[30]
*405 wbs_dat_o[31]
*406 wbs_dat_o[3]
*407 wbs_dat_o[4]
*408 wbs_dat_o[5]
*409 wbs_dat_o[6]
*410 wbs_dat_o[7]
*411 wbs_dat_o[8]
*412 wbs_dat_o[9]
*413 wbs_sel_i[0]
*414 wbs_sel_i[1]
*415 wbs_sel_i[2]
*416 wbs_sel_i[3]
*417 wbs_stb_i
*418 wbs_we_i
*419 anan_logo
*420 saradc

*PORTS
io_in[0] I
io_in[10] I
io_in[11] I
io_in[12] I
io_in[13] I
io_in[14] I
io_in[15] I
io_in[16] I
io_in[17] I
io_in[18] I
io_in[19] I
io_in[1] I
io_in[20] I
io_in[21] I
io_in[22] I
io_in[23] I
io_in[24] I
io_in[25] I
io_in[26] I
io_in[27] I
io_in[28] I
io_in[29] I
io_in[2] I
io_in[30] I
io_in[31] I
io_in[32] I
io_in[33] I
io_in[34] I
io_in[35] I
io_in[36] I
io_in[37] I
io_in[3] I
io_in[4] I
io_in[5] I
io_in[6] I
io_in[7] I
io_in[8] I
io_in[9] I
io_oeb[0] O
io_oeb[10] O
io_oeb[11] O
io_oeb[12] O
io_oeb[13] O
io_oeb[14] O
io_oeb[15] O
io_oeb[16] O
io_oeb[17] O
io_oeb[18] O
io_oeb[19] O
io_oeb[1] O
io_oeb[20] O
io_oeb[21] O
io_oeb[22] O
io_oeb[23] O
io_oeb[24] O
io_oeb[25] O
io_oeb[26] O
io_oeb[27] O
io_oeb[28] O
io_oeb[29] O
io_oeb[2] O
io_oeb[30] O
io_oeb[31] O
io_oeb[32] O
io_oeb[33] O
io_oeb[34] O
io_oeb[35] O
io_oeb[36] O
io_oeb[37] O
io_oeb[3] O
io_oeb[4] O
io_oeb[5] O
io_oeb[6] O
io_oeb[7] O
io_oeb[8] O
io_oeb[9] O
io_out[0] O
io_out[10] O
io_out[11] O
io_out[12] O
io_out[13] O
io_out[14] O
io_out[15] O
io_out[16] O
io_out[17] O
io_out[18] O
io_out[19] O
io_out[1] O
io_out[20] O
io_out[21] O
io_out[22] O
io_out[23] O
io_out[24] O
io_out[25] O
io_out[26] O
io_out[27] O
io_out[28] O
io_out[29] O
io_out[2] O
io_out[30] O
io_out[31] O
io_out[32] O
io_out[33] O
io_out[34] O
io_out[35] O
io_out[36] O
io_out[37] O
io_out[3] O
io_out[4] O
io_out[5] O
io_out[6] O
io_out[7] O
io_out[8] O
io_out[9] O
la_data_in[0] I
la_data_in[10] I
la_data_in[11] I
la_data_in[12] I
la_data_in[13] I
la_data_in[14] I
la_data_in[15] I
la_data_in[16] I
la_data_in[17] I
la_data_in[18] I
la_data_in[19] I
la_data_in[1] I
la_data_in[20] I
la_data_in[21] I
la_data_in[22] I
la_data_in[23] I
la_data_in[24] I
la_data_in[25] I
la_data_in[26] I
la_data_in[27] I
la_data_in[28] I
la_data_in[29] I
la_data_in[2] I
la_data_in[30] I
la_data_in[31] I
la_data_in[32] I
la_data_in[33] I
la_data_in[34] I
la_data_in[35] I
la_data_in[36] I
la_data_in[37] I
la_data_in[38] I
la_data_in[39] I
la_data_in[3] I
la_data_in[40] I
la_data_in[41] I
la_data_in[42] I
la_data_in[43] I
la_data_in[44] I
la_data_in[45] I
la_data_in[46] I
la_data_in[47] I
la_data_in[48] I
la_data_in[49] I
la_data_in[4] I
la_data_in[50] I
la_data_in[51] I
la_data_in[52] I
la_data_in[53] I
la_data_in[54] I
la_data_in[55] I
la_data_in[56] I
la_data_in[57] I
la_data_in[58] I
la_data_in[59] I
la_data_in[5] I
la_data_in[60] I
la_data_in[61] I
la_data_in[62] I
la_data_in[63] I
la_data_in[6] I
la_data_in[7] I
la_data_in[8] I
la_data_in[9] I
la_data_out[0] O
la_data_out[10] O
la_data_out[11] O
la_data_out[12] O
la_data_out[13] O
la_data_out[14] O
la_data_out[15] O
la_data_out[16] O
la_data_out[17] O
la_data_out[18] O
la_data_out[19] O
la_data_out[1] O
la_data_out[20] O
la_data_out[21] O
la_data_out[22] O
la_data_out[23] O
la_data_out[24] O
la_data_out[25] O
la_data_out[26] O
la_data_out[27] O
la_data_out[28] O
la_data_out[29] O
la_data_out[2] O
la_data_out[30] O
la_data_out[31] O
la_data_out[32] O
la_data_out[33] O
la_data_out[34] O
la_data_out[35] O
la_data_out[36] O
la_data_out[37] O
la_data_out[38] O
la_data_out[39] O
la_data_out[3] O
la_data_out[40] O
la_data_out[41] O
la_data_out[42] O
la_data_out[43] O
la_data_out[44] O
la_data_out[45] O
la_data_out[46] O
la_data_out[47] O
la_data_out[48] O
la_data_out[49] O
la_data_out[4] O
la_data_out[50] O
la_data_out[51] O
la_data_out[52] O
la_data_out[53] O
la_data_out[54] O
la_data_out[55] O
la_data_out[56] O
la_data_out[57] O
la_data_out[58] O
la_data_out[59] O
la_data_out[5] O
la_data_out[60] O
la_data_out[61] O
la_data_out[62] O
la_data_out[63] O
la_data_out[6] O
la_data_out[7] O
la_data_out[8] O
la_data_out[9] O
la_oenb[0] I
la_oenb[10] I
la_oenb[11] I
la_oenb[12] I
la_oenb[13] I
la_oenb[14] I
la_oenb[15] I
la_oenb[16] I
la_oenb[17] I
la_oenb[18] I
la_oenb[19] I
la_oenb[1] I
la_oenb[20] I
la_oenb[21] I
la_oenb[22] I
la_oenb[23] I
la_oenb[24] I
la_oenb[25] I
la_oenb[26] I
la_oenb[27] I
la_oenb[28] I
la_oenb[29] I
la_oenb[2] I
la_oenb[30] I
la_oenb[31] I
la_oenb[32] I
la_oenb[33] I
la_oenb[34] I
la_oenb[35] I
la_oenb[36] I
la_oenb[37] I
la_oenb[38] I
la_oenb[39] I
la_oenb[3] I
la_oenb[40] I
la_oenb[41] I
la_oenb[42] I
la_oenb[43] I
la_oenb[44] I
la_oenb[45] I
la_oenb[46] I
la_oenb[47] I
la_oenb[48] I
la_oenb[49] I
la_oenb[4] I
la_oenb[50] I
la_oenb[51] I
la_oenb[52] I
la_oenb[53] I
la_oenb[54] I
la_oenb[55] I
la_oenb[56] I
la_oenb[57] I
la_oenb[58] I
la_oenb[59] I
la_oenb[5] I
la_oenb[60] I
la_oenb[61] I
la_oenb[62] I
la_oenb[63] I
la_oenb[6] I
la_oenb[7] I
la_oenb[8] I
la_oenb[9] I
user_clock2 I
user_irq[0] O
user_irq[1] O
user_irq[2] O
wb_clk_i I
wb_rst_i I
wbs_ack_o O
wbs_adr_i[0] I
wbs_adr_i[10] I
wbs_adr_i[11] I
wbs_adr_i[12] I
wbs_adr_i[13] I
wbs_adr_i[14] I
wbs_adr_i[15] I
wbs_adr_i[16] I
wbs_adr_i[17] I
wbs_adr_i[18] I
wbs_adr_i[19] I
wbs_adr_i[1] I
wbs_adr_i[20] I
wbs_adr_i[21] I
wbs_adr_i[22] I
wbs_adr_i[23] I
wbs_adr_i[24] I
wbs_adr_i[25] I
wbs_adr_i[26] I
wbs_adr_i[27] I
wbs_adr_i[28] I
wbs_adr_i[29] I
wbs_adr_i[2] I
wbs_adr_i[30] I
wbs_adr_i[31] I
wbs_adr_i[3] I
wbs_adr_i[4] I
wbs_adr_i[5] I
wbs_adr_i[6] I
wbs_adr_i[7] I
wbs_adr_i[8] I
wbs_adr_i[9] I
wbs_cyc_i I
wbs_dat_i[0] I
wbs_dat_i[10] I
wbs_dat_i[11] I
wbs_dat_i[12] I
wbs_dat_i[13] I
wbs_dat_i[14] I
wbs_dat_i[15] I
wbs_dat_i[16] I
wbs_dat_i[17] I
wbs_dat_i[18] I
wbs_dat_i[19] I
wbs_dat_i[1] I
wbs_dat_i[20] I
wbs_dat_i[21] I
wbs_dat_i[22] I
wbs_dat_i[23] I
wbs_dat_i[24] I
wbs_dat_i[25] I
wbs_dat_i[26] I
wbs_dat_i[27] I
wbs_dat_i[28] I
wbs_dat_i[29] I
wbs_dat_i[2] I
wbs_dat_i[30] I
wbs_dat_i[31] I
wbs_dat_i[3] I
wbs_dat_i[4] I
wbs_dat_i[5] I
wbs_dat_i[6] I
wbs_dat_i[7] I
wbs_dat_i[8] I
wbs_dat_i[9] I
wbs_dat_o[0] O
wbs_dat_o[10] O
wbs_dat_o[11] O
wbs_dat_o[12] O
wbs_dat_o[13] O
wbs_dat_o[14] O
wbs_dat_o[15] O
wbs_dat_o[16] O
wbs_dat_o[17] O
wbs_dat_o[18] O
wbs_dat_o[19] O
wbs_dat_o[1] O
wbs_dat_o[20] O
wbs_dat_o[21] O
wbs_dat_o[22] O
wbs_dat_o[23] O
wbs_dat_o[24] O
wbs_dat_o[25] O
wbs_dat_o[26] O
wbs_dat_o[27] O
wbs_dat_o[28] O
wbs_dat_o[29] O
wbs_dat_o[2] O
wbs_dat_o[30] O
wbs_dat_o[31] O
wbs_dat_o[3] O
wbs_dat_o[4] O
wbs_dat_o[5] O
wbs_dat_o[6] O
wbs_dat_o[7] O
wbs_dat_o[8] O
wbs_dat_o[9] O
wbs_sel_i[0] I
wbs_sel_i[1] I
wbs_sel_i[2] I
wbs_sel_i[3] I
wbs_stb_i I
wbs_we_i I

*D_NET *20 0.234051
*CONN
*P io_in[27] I
*I *420:user_input[0] I *D saradc
*CAP
1 io_in[27] 0.000790409
2 *420:user_input[0] 0.0212081
3 *20:11 0.0212081
4 *20:9 0.0289217
5 *20:7 0.0297121
6 *20:9 *21:9 0.13221
*RES
1 io_in[27] *20:7 11.624 
2 *20:7 *20:9 413.192 
3 *20:9 *20:11 4.5 
4 *20:11 *420:user_input[0] 145.652 
*END

*D_NET *21 0.278647
*CONN
*P io_in[28] I
*I *420:user_input[1] I *D saradc
*CAP
1 io_in[28] 0.00106243
2 *420:user_input[1] 0.0167057
3 *21:11 0.0167057
4 *21:9 0.00572867
5 *21:7 0.0067911
6 *21:9 *22:9 0.0994435
7 *20:9 *21:9 0.13221
*RES
1 io_in[28] *21:7 11.832 
2 *21:7 *21:9 331.24 
3 *21:9 *21:11 4.5 
4 *21:11 *420:user_input[1] 145.444 
*END

*D_NET *22 0.212308
*CONN
*P io_in[29] I
*I *420:user_input[2] I *D saradc
*CAP
1 io_in[29] 0.000878653
2 *420:user_input[2] 0.0166831
3 *22:11 0.0166831
4 *22:9 0.00549265
5 *22:7 0.00637131
6 *22:9 *24:9 0.066756
7 *21:9 *22:9 0.0994435
*RES
1 io_in[29] *22:7 12.04 
2 *22:7 *22:9 249.288 
3 *22:9 *22:11 4.5 
4 *22:11 *420:user_input[2] 145.236 
*END

*D_NET *24 0.146379
*CONN
*P io_in[30] I
*I *420:user_input[3] I *D saradc
*CAP
1 io_in[30] 0.000922776
2 *420:user_input[3] 0.0166605
3 *24:11 0.0166605
4 *24:9 0.00518288
5 *24:7 0.00610566
6 *24:9 *25:9 0.0340909
7 *22:9 *24:9 0.066756
*RES
1 io_in[30] *24:7 12.248 
2 *24:7 *24:9 167.336 
3 *24:9 *24:11 4.5 
4 *24:11 *420:user_input[3] 145.028 
*END

*D_NET *25 0.0892396
*CONN
*P io_in[31] I
*I *420:user_input[4] I *D saradc
*CAP
1 io_in[31] 0.000966898
2 *420:user_input[4] 0.0210905
3 *25:11 0.0210905
4 *25:9 0.00482645
5 *25:7 0.00579335
6 *25:9 *26:11 0.00138105
7 *24:9 *25:9 0.0340909
*RES
1 io_in[31] *25:7 12.456 
2 *25:7 *25:9 85.384 
3 *25:9 *25:11 4.5 
4 *25:11 *420:user_input[4] 144.82 
*END

*D_NET *26 0.0370406
*CONN
*P io_in[32] I
*I *420:user_input[5] I *D saradc
*CAP
1 io_in[32] 0.00121448
2 *420:user_input[5] 0.0166153
3 *26:11 0.0178298
4 *25:9 *26:11 0.00138105
*RES
1 io_in[32] *26:11 20.596 
2 *26:11 *420:user_input[5] 144.612 
*END

*D_NET *27 0.0533742
*CONN
*P io_in[33] I
*I *420:user_input[6] I *D saradc
*CAP
1 io_in[33] 0.00278724
2 *420:user_input[6] 0.0147317
3 *27:11 0.0147317
4 *27:9 0.00916822
5 *27:7 0.0119555
*RES
1 io_in[33] *27:7 27.224 
2 *27:7 *27:9 78.728 
3 *27:9 *27:11 4.5 
4 *27:11 *420:user_input[6] 130.052 
*END

*D_NET *28 0.097153
*CONN
*P io_in[34] I
*I *420:user_input[7] I *D saradc
*CAP
1 io_in[34] 0.0212702
2 *420:user_input[7] 0.000199972
3 *28:17 0.00592273
4 *28:15 0.00689585
5 *28:5 0.0224433
6 *28:15 *29:9 0.00828193
7 *28:15 *29:15 0.000440671
8 *28:15 *30:9 3.74151e-05
9 *28:15 *30:15 0.000595969
10 *28:17 *29:17 0.0228368
11 *28:17 *30:17 0.00822805
*RES
1 io_in[34] *28:5 187.044 
2 *28:5 *28:15 35.756 
3 *28:15 *28:17 138.84 
4 *28:17 *420:user_input[7] 5.71829 
*END

*D_NET *29 0.142653
*CONN
*P io_in[35] I
*I *420:user_input[8] I *D saradc
*CAP
1 io_in[35] 0.0212261
2 *420:user_input[8] 5.15064e-05
3 *29:17 0.00991733
4 *29:15 0.00998625
5 *29:9 0.00437543
6 *29:7 0.00425499
7 *29:5 0.0212261
8 *29:9 *30:9 0.040033
9 *29:15 *30:15 2.27998e-05
10 *29:17 *30:17 0
11 *28:15 *29:9 0.00828193
12 *28:15 *29:15 0.000440671
13 *28:17 *29:17 0.0228368
*RES
1 io_in[35] *29:5 186.836 
2 *29:5 *29:7 4.5 
3 *29:7 *29:9 99.112 
4 *29:9 *29:15 10.352 
5 *29:15 *29:17 143.208 
6 *29:17 *420:user_input[8] 4.88629 
*END

*D_NET *30 0.147681
*CONN
*P io_in[36] I
*I *420:user_input[9] I *D saradc
*CAP
1 io_in[36] 0.021182
2 *420:user_input[9] 5.15064e-05
3 *30:17 0.013505
4 *30:15 0.0137667
5 *30:9 0.0146951
6 *30:7 0.0143819
7 *30:5 0.021182
8 *28:15 *30:9 3.74151e-05
9 *28:15 *30:15 0.000595969
10 *28:17 *30:17 0.00822805
11 *29:9 *30:9 0.040033
12 *29:15 *30:15 2.27998e-05
13 *29:17 *30:17 0
*RES
1 io_in[36] *30:5 186.628 
2 *30:5 *30:7 4.5 
3 *30:7 *30:9 178.152 
4 *30:9 *30:15 12.016 
5 *30:15 *30:17 146.12 
6 *30:17 *420:user_input[9] 4.88629 
*END

*D_NET *161 0.105788
*CONN
*P la_data_in[51] I
*I *420:en I *D saradc
*CAP
1 la_data_in[51] 0.0018659
2 *420:en 6.03875e-05
3 *161:13 0.0510279
4 *161:11 0.0528334
*RES
1 la_data_in[51] *161:11 24.34 
2 *161:11 *161:13 429 
3 *161:13 *420:en 4.968 
*END

*D_NET *162 0.105295
*CONN
*P la_data_in[52] I
*I *420:cal I *D saradc
*CAP
1 la_data_in[52] 0.052572
2 *420:cal 7.56945e-05
3 *162:5 0.0526477
*RES
1 la_data_in[52] *162:5 442.052 
2 *162:5 *420:cal 4.968 
*END

*D_NET *227 0.106805
*CONN
*P la_data_out[53] O
*I *420:valid I *D saradc
*CAP
1 la_data_out[53] 0.0520703
2 *420:valid 0.00133207
3 *227:5 0.0534024
*RES
1 la_data_out[53] *227:5 437.684 
2 *227:5 *420:valid 24.264 
*END

*D_NET *228 0.111007
*CONN
*P la_data_out[54] O
*I *420:result[0] I *D saradc
*CAP
1 la_data_out[54] 0.00308572
2 *420:result[0] 0.000128207
3 *228:13 0.0524178
4 *228:11 0.0553753
*RES
1 la_data_out[54] *228:11 35.364 
2 *228:11 *228:13 440.024 
3 *228:13 *420:result[0] 5.592 
*END

*D_NET *229 0.113632
*CONN
*P la_data_out[55] O
*I *420:result[1] I *D saradc
*CAP
1 la_data_out[55] 0.0532188
2 *420:result[1] 0.0035973
3 *229:5 0.0568161
*RES
1 la_data_out[55] *229:5 447.044 
2 *229:5 *420:result[1] 44.5514 
*END

*D_NET *230 0.134785
*CONN
*P la_data_out[56] O
*I *420:result[2] I *D saradc
*CAP
1 la_data_out[56] 0.0491239
2 *420:result[2] 0.00319343
3 *230:19 0.00522608
4 *230:9 0.0150754
5 *230:7 0.0130427
6 *230:5 0.0491239
*RES
1 la_data_out[56] *230:5 412.724 
2 *230:5 *230:7 4.5 
3 *230:7 *230:9 115.336 
4 *230:9 *230:19 30.764 
5 *230:19 *420:result[2] 31.904 
*END

*D_NET *231 0.120159
*CONN
*P la_data_out[57] O
*I *420:result[3] I *D saradc
*CAP
1 la_data_out[57] 0.00478975
2 *420:result[3] 0.00176734
3 *231:20 0
4 *231:13 0.0552896
5 *231:11 0.058312
*RES
1 la_data_out[57] *231:11 48.468 
2 *231:11 *231:13 449.8 
3 *231:13 *420:result[3] 20.412 
4 *420:result[3] *231:20 0.182 
*END

*D_NET *232 0.122975
*CONN
*P la_data_out[58] O
*I *420:result[4] I *D saradc
*CAP
1 la_data_out[58] 0.00191111
2 *420:result[4] 0.00575556
3 *232:20 0
4 *232:15 0.00575556
5 *232:13 0.0538209
6 *232:11 0.055732
*RES
1 la_data_out[58] *232:11 24.756 
2 *232:11 *232:13 452.712 
3 *232:13 *232:15 4.5 
4 *232:15 *420:result[4] 50.232 
5 *420:result[4] *232:20 0.182 
*END

*D_NET *233 0.12596
*CONN
*P la_data_out[59] O
*I *420:result[5] I *D saradc
*CAP
1 la_data_out[59] 0.00170765
2 *420:result[5] 0.00711195
3 *233:20 0
4 *233:15 0.00711195
5 *233:13 0.0541603
6 *233:11 0.055868
*RES
1 la_data_out[59] *233:11 22.884 
2 *233:11 *233:13 455.624 
3 *233:13 *233:15 4.5 
4 *233:15 *420:result[5] 62.712 
5 *420:result[5] *233:20 0.182 
*END

*D_NET *235 0.128922
*CONN
*P la_data_out[60] O
*I *420:result[6] I *D saradc
*CAP
1 la_data_out[60] 0.00149861
2 *420:result[6] 0.00846834
3 *235:20 0
4 *235:15 0.00846834
5 *235:13 0.0544942
6 *235:11 0.0559928
7 *420:result[6] *420:result[7] 0
*RES
1 la_data_out[60] *235:11 21.012 
2 *235:11 *235:13 458.536 
3 *235:13 *235:15 4.5 
4 *235:15 *420:result[6] 75.192 
5 *420:result[6] *235:20 0.182 
*END

*D_NET *236 0.132949
*CONN
*P la_data_out[61] O
*I *420:result[7] I *D saradc
*CAP
1 la_data_out[61] 0.00200683
2 *420:result[7] 0.00118696
3 *236:13 0.0552795
4 *236:11 0.0540925
5 *236:9 0.00918804
6 *236:7 0.0111949
7 *420:result[6] *420:result[7] 0
*RES
1 la_data_out[61] *236:7 20.984 
2 *236:7 *236:9 77.896 
3 *236:9 *236:11 4.5 
4 *236:11 *236:13 454.168 
5 *236:13 *420:result[7] 15.2714 
*END

*D_NET *237 0.215869
*CONN
*P la_data_out[62] O
*I *420:result[8] I *D saradc
*CAP
1 la_data_out[62] 0.000908996
2 *420:result[8] 0.000314877
3 *237:13 0.0321411
4 *237:11 0.0318262
5 *237:9 0.0107598
6 *237:7 0.0116688
7 *237:9 *238:9 0.0517718
8 *237:13 *238:13 0.0764778
*RES
1 la_data_out[62] *237:7 11.832 
2 *237:7 *237:9 138.008 
3 *237:9 *237:11 4.5 
4 *237:11 *237:13 466.856 
5 *237:13 *420:result[8] 7.1 
*END

*D_NET *238 0.219634
*CONN
*P la_data_out[63] O
*I *420:result[9] I *D saradc
*CAP
1 la_data_out[63] 0.00086436
2 *420:result[9] 0.000281897
3 *238:13 0.0324856
4 *238:11 0.0322037
5 *238:9 0.0123423
6 *238:7 0.0132066
7 *238:13 *314:13 0
8 *237:9 *238:9 0.0517718
9 *237:13 *238:13 0.0764778
*RES
1 la_data_out[63] *238:7 11.624 
2 *238:7 *238:9 149.032 
3 *238:9 *238:11 4.5 
4 *238:11 *238:13 469.768 
5 *238:13 *420:result[9] 6.944 
*END

*D_NET *313 0.29093
*CONN
*P wb_clk_i I
*I *420:clk I *D saradc
*CAP
1 wb_clk_i 0.0491316
2 *420:clk 0.000831873
3 *313:25 0.00416311
4 *313:9 0.0955015
5 *313:7 0.0921702
6 *313:5 0.0491316
*RES
1 wb_clk_i *313:5 412.724 
2 *313:5 *313:7 4.5 
3 *313:7 *313:9 841.672 
4 *313:9 *313:25 46.8577 
5 *313:25 *420:clk 16.02 
*END

*D_NET *314 0.360687
*CONN
*P wb_rst_i I
*I *420:rstn I *D saradc
*CAP
1 wb_rst_i 0.00086436
2 *420:rstn 0.000109637
3 *314:13 0.050359
4 *314:11 0.0502494
5 *314:9 0.12912
6 *314:7 0.129984
7 *238:13 *314:13 0
*RES
1 wb_rst_i *314:7 11.624 
2 *314:7 *314:9 892.632 
3 *314:9 *314:11 4.5 
4 *314:11 *314:13 426.088 
5 *314:13 *420:rstn 5.436 
*END
