*SPEF "ieee 1481-1999"
*DESIGN "user_project_wrapper"
*DATE "11:11:11 Fri 11 11, 1111"
*VENDOR "OpenRCX"
*PROGRAM "Parallel Extraction"
*VERSION "1.0"
*DESIGN_FLOW "NAME_SCOPE LOCAL" "PIN_CAP NONE"
*DIVIDER /
*DELIMITER :
*BUS_DELIMITER []
*T_UNIT 1 NS
*C_UNIT 1 PF
*R_UNIT 1 OHM
*L_UNIT 1 HENRY

*NAME_MAP
*1 io_in[0]
*2 io_in[10]
*3 io_in[11]
*4 io_in[12]
*5 io_in[13]
*6 io_in[14]
*7 io_in[15]
*8 io_in[16]
*9 io_in[17]
*10 io_in[18]
*11 io_in[19]
*12 io_in[1]
*13 io_in[20]
*14 io_in[21]
*15 io_in[22]
*16 io_in[23]
*17 io_in[24]
*18 io_in[25]
*19 io_in[26]
*20 io_in[27]
*21 io_in[28]
*22 io_in[29]
*23 io_in[2]
*24 io_in[30]
*25 io_in[31]
*26 io_in[32]
*27 io_in[33]
*28 io_in[34]
*29 io_in[35]
*30 io_in[36]
*31 io_in[37]
*32 io_in[3]
*33 io_in[4]
*34 io_in[5]
*35 io_in[6]
*36 io_in[7]
*37 io_in[8]
*38 io_in[9]
*39 io_oeb[0]
*40 io_oeb[10]
*41 io_oeb[11]
*42 io_oeb[12]
*43 io_oeb[13]
*44 io_oeb[14]
*45 io_oeb[15]
*46 io_oeb[16]
*47 io_oeb[17]
*48 io_oeb[18]
*49 io_oeb[19]
*50 io_oeb[1]
*51 io_oeb[20]
*52 io_oeb[21]
*53 io_oeb[22]
*54 io_oeb[23]
*55 io_oeb[24]
*56 io_oeb[25]
*57 io_oeb[26]
*58 io_oeb[27]
*59 io_oeb[28]
*60 io_oeb[29]
*61 io_oeb[2]
*62 io_oeb[30]
*63 io_oeb[31]
*64 io_oeb[32]
*65 io_oeb[33]
*66 io_oeb[34]
*67 io_oeb[35]
*68 io_oeb[36]
*69 io_oeb[37]
*70 io_oeb[3]
*71 io_oeb[4]
*72 io_oeb[5]
*73 io_oeb[6]
*74 io_oeb[7]
*75 io_oeb[8]
*76 io_oeb[9]
*77 io_out[0]
*78 io_out[10]
*79 io_out[11]
*80 io_out[12]
*81 io_out[13]
*82 io_out[14]
*83 io_out[15]
*84 io_out[16]
*85 io_out[17]
*86 io_out[18]
*87 io_out[19]
*88 io_out[1]
*89 io_out[20]
*90 io_out[21]
*91 io_out[22]
*92 io_out[23]
*93 io_out[24]
*94 io_out[25]
*95 io_out[26]
*96 io_out[27]
*97 io_out[28]
*98 io_out[29]
*99 io_out[2]
*100 io_out[30]
*101 io_out[31]
*102 io_out[32]
*103 io_out[33]
*104 io_out[34]
*105 io_out[35]
*106 io_out[36]
*107 io_out[37]
*108 io_out[3]
*109 io_out[4]
*110 io_out[5]
*111 io_out[6]
*112 io_out[7]
*113 io_out[8]
*114 io_out[9]
*115 la_data_in[0]
*116 la_data_in[10]
*117 la_data_in[11]
*118 la_data_in[12]
*119 la_data_in[13]
*120 la_data_in[14]
*121 la_data_in[15]
*122 la_data_in[16]
*123 la_data_in[17]
*124 la_data_in[18]
*125 la_data_in[19]
*126 la_data_in[1]
*127 la_data_in[20]
*128 la_data_in[21]
*129 la_data_in[22]
*130 la_data_in[23]
*131 la_data_in[24]
*132 la_data_in[25]
*133 la_data_in[26]
*134 la_data_in[27]
*135 la_data_in[28]
*136 la_data_in[29]
*137 la_data_in[2]
*138 la_data_in[30]
*139 la_data_in[31]
*140 la_data_in[32]
*141 la_data_in[33]
*142 la_data_in[34]
*143 la_data_in[35]
*144 la_data_in[36]
*145 la_data_in[37]
*146 la_data_in[38]
*147 la_data_in[39]
*148 la_data_in[3]
*149 la_data_in[40]
*150 la_data_in[41]
*151 la_data_in[42]
*152 la_data_in[43]
*153 la_data_in[44]
*154 la_data_in[45]
*155 la_data_in[46]
*156 la_data_in[47]
*157 la_data_in[48]
*158 la_data_in[49]
*159 la_data_in[4]
*160 la_data_in[50]
*161 la_data_in[51]
*162 la_data_in[52]
*163 la_data_in[53]
*164 la_data_in[54]
*165 la_data_in[55]
*166 la_data_in[56]
*167 la_data_in[57]
*168 la_data_in[58]
*169 la_data_in[59]
*170 la_data_in[5]
*171 la_data_in[60]
*172 la_data_in[61]
*173 la_data_in[62]
*174 la_data_in[63]
*175 la_data_in[6]
*176 la_data_in[7]
*177 la_data_in[8]
*178 la_data_in[9]
*179 la_data_out[0]
*180 la_data_out[10]
*181 la_data_out[11]
*182 la_data_out[12]
*183 la_data_out[13]
*184 la_data_out[14]
*185 la_data_out[15]
*186 la_data_out[16]
*187 la_data_out[17]
*188 la_data_out[18]
*189 la_data_out[19]
*190 la_data_out[1]
*191 la_data_out[20]
*192 la_data_out[21]
*193 la_data_out[22]
*194 la_data_out[23]
*195 la_data_out[24]
*196 la_data_out[25]
*197 la_data_out[26]
*198 la_data_out[27]
*199 la_data_out[28]
*200 la_data_out[29]
*201 la_data_out[2]
*202 la_data_out[30]
*203 la_data_out[31]
*204 la_data_out[32]
*205 la_data_out[33]
*206 la_data_out[34]
*207 la_data_out[35]
*208 la_data_out[36]
*209 la_data_out[37]
*210 la_data_out[38]
*211 la_data_out[39]
*212 la_data_out[3]
*213 la_data_out[40]
*214 la_data_out[41]
*215 la_data_out[42]
*216 la_data_out[43]
*217 la_data_out[44]
*218 la_data_out[45]
*219 la_data_out[46]
*220 la_data_out[47]
*221 la_data_out[48]
*222 la_data_out[49]
*223 la_data_out[4]
*224 la_data_out[50]
*225 la_data_out[51]
*226 la_data_out[52]
*227 la_data_out[53]
*228 la_data_out[54]
*229 la_data_out[55]
*230 la_data_out[56]
*231 la_data_out[57]
*232 la_data_out[58]
*233 la_data_out[59]
*234 la_data_out[5]
*235 la_data_out[60]
*236 la_data_out[61]
*237 la_data_out[62]
*238 la_data_out[63]
*239 la_data_out[6]
*240 la_data_out[7]
*241 la_data_out[8]
*242 la_data_out[9]
*243 la_oenb[0]
*244 la_oenb[10]
*245 la_oenb[11]
*246 la_oenb[12]
*247 la_oenb[13]
*248 la_oenb[14]
*249 la_oenb[15]
*250 la_oenb[16]
*251 la_oenb[17]
*252 la_oenb[18]
*253 la_oenb[19]
*254 la_oenb[1]
*255 la_oenb[20]
*256 la_oenb[21]
*257 la_oenb[22]
*258 la_oenb[23]
*259 la_oenb[24]
*260 la_oenb[25]
*261 la_oenb[26]
*262 la_oenb[27]
*263 la_oenb[28]
*264 la_oenb[29]
*265 la_oenb[2]
*266 la_oenb[30]
*267 la_oenb[31]
*268 la_oenb[32]
*269 la_oenb[33]
*270 la_oenb[34]
*271 la_oenb[35]
*272 la_oenb[36]
*273 la_oenb[37]
*274 la_oenb[38]
*275 la_oenb[39]
*276 la_oenb[3]
*277 la_oenb[40]
*278 la_oenb[41]
*279 la_oenb[42]
*280 la_oenb[43]
*281 la_oenb[44]
*282 la_oenb[45]
*283 la_oenb[46]
*284 la_oenb[47]
*285 la_oenb[48]
*286 la_oenb[49]
*287 la_oenb[4]
*288 la_oenb[50]
*289 la_oenb[51]
*290 la_oenb[52]
*291 la_oenb[53]
*292 la_oenb[54]
*293 la_oenb[55]
*294 la_oenb[56]
*295 la_oenb[57]
*296 la_oenb[58]
*297 la_oenb[59]
*298 la_oenb[5]
*299 la_oenb[60]
*300 la_oenb[61]
*301 la_oenb[62]
*302 la_oenb[63]
*303 la_oenb[6]
*304 la_oenb[7]
*305 la_oenb[8]
*306 la_oenb[9]
*307 user_clock2
*308 user_irq[0]
*309 user_irq[1]
*310 user_irq[2]
*313 wb_clk_i
*314 wb_rst_i
*315 wbs_ack_o
*316 wbs_adr_i[0]
*317 wbs_adr_i[10]
*318 wbs_adr_i[11]
*319 wbs_adr_i[12]
*320 wbs_adr_i[13]
*321 wbs_adr_i[14]
*322 wbs_adr_i[15]
*323 wbs_adr_i[16]
*324 wbs_adr_i[17]
*325 wbs_adr_i[18]
*326 wbs_adr_i[19]
*327 wbs_adr_i[1]
*328 wbs_adr_i[20]
*329 wbs_adr_i[21]
*330 wbs_adr_i[22]
*331 wbs_adr_i[23]
*332 wbs_adr_i[24]
*333 wbs_adr_i[25]
*334 wbs_adr_i[26]
*335 wbs_adr_i[27]
*336 wbs_adr_i[28]
*337 wbs_adr_i[29]
*338 wbs_adr_i[2]
*339 wbs_adr_i[30]
*340 wbs_adr_i[31]
*341 wbs_adr_i[3]
*342 wbs_adr_i[4]
*343 wbs_adr_i[5]
*344 wbs_adr_i[6]
*345 wbs_adr_i[7]
*346 wbs_adr_i[8]
*347 wbs_adr_i[9]
*348 wbs_cyc_i
*349 wbs_dat_i[0]
*350 wbs_dat_i[10]
*351 wbs_dat_i[11]
*352 wbs_dat_i[12]
*353 wbs_dat_i[13]
*354 wbs_dat_i[14]
*355 wbs_dat_i[15]
*356 wbs_dat_i[16]
*357 wbs_dat_i[17]
*358 wbs_dat_i[18]
*359 wbs_dat_i[19]
*360 wbs_dat_i[1]
*361 wbs_dat_i[20]
*362 wbs_dat_i[21]
*363 wbs_dat_i[22]
*364 wbs_dat_i[23]
*365 wbs_dat_i[24]
*366 wbs_dat_i[25]
*367 wbs_dat_i[26]
*368 wbs_dat_i[27]
*369 wbs_dat_i[28]
*370 wbs_dat_i[29]
*371 wbs_dat_i[2]
*372 wbs_dat_i[30]
*373 wbs_dat_i[31]
*374 wbs_dat_i[3]
*375 wbs_dat_i[4]
*376 wbs_dat_i[5]
*377 wbs_dat_i[6]
*378 wbs_dat_i[7]
*379 wbs_dat_i[8]
*380 wbs_dat_i[9]
*381 wbs_dat_o[0]
*382 wbs_dat_o[10]
*383 wbs_dat_o[11]
*384 wbs_dat_o[12]
*385 wbs_dat_o[13]
*386 wbs_dat_o[14]
*387 wbs_dat_o[15]
*388 wbs_dat_o[16]
*389 wbs_dat_o[17]
*390 wbs_dat_o[18]
*391 wbs_dat_o[19]
*392 wbs_dat_o[1]
*393 wbs_dat_o[20]
*394 wbs_dat_o[21]
*395 wbs_dat_o[22]
*396 wbs_dat_o[23]
*397 wbs_dat_o[24]
*398 wbs_dat_o[25]
*399 wbs_dat_o[26]
*400 wbs_dat_o[27]
*401 wbs_dat_o[28]
*402 wbs_dat_o[29]
*403 wbs_dat_o[2]
*404 wbs_dat_o[30]
*405 wbs_dat_o[31]
*406 wbs_dat_o[3]
*407 wbs_dat_o[4]
*408 wbs_dat_o[5]
*409 wbs_dat_o[6]
*410 wbs_dat_o[7]
*411 wbs_dat_o[8]
*412 wbs_dat_o[9]
*413 wbs_sel_i[0]
*414 wbs_sel_i[1]
*415 wbs_sel_i[2]
*416 wbs_sel_i[3]
*417 wbs_stb_i
*418 wbs_we_i
*419 saradc

*PORTS
io_in[0] I
io_in[10] I
io_in[11] I
io_in[12] I
io_in[13] I
io_in[14] I
io_in[15] I
io_in[16] I
io_in[17] I
io_in[18] I
io_in[19] I
io_in[1] I
io_in[20] I
io_in[21] I
io_in[22] I
io_in[23] I
io_in[24] I
io_in[25] I
io_in[26] I
io_in[27] I
io_in[28] I
io_in[29] I
io_in[2] I
io_in[30] I
io_in[31] I
io_in[32] I
io_in[33] I
io_in[34] I
io_in[35] I
io_in[36] I
io_in[37] I
io_in[3] I
io_in[4] I
io_in[5] I
io_in[6] I
io_in[7] I
io_in[8] I
io_in[9] I
io_oeb[0] O
io_oeb[10] O
io_oeb[11] O
io_oeb[12] O
io_oeb[13] O
io_oeb[14] O
io_oeb[15] O
io_oeb[16] O
io_oeb[17] O
io_oeb[18] O
io_oeb[19] O
io_oeb[1] O
io_oeb[20] O
io_oeb[21] O
io_oeb[22] O
io_oeb[23] O
io_oeb[24] O
io_oeb[25] O
io_oeb[26] O
io_oeb[27] O
io_oeb[28] O
io_oeb[29] O
io_oeb[2] O
io_oeb[30] O
io_oeb[31] O
io_oeb[32] O
io_oeb[33] O
io_oeb[34] O
io_oeb[35] O
io_oeb[36] O
io_oeb[37] O
io_oeb[3] O
io_oeb[4] O
io_oeb[5] O
io_oeb[6] O
io_oeb[7] O
io_oeb[8] O
io_oeb[9] O
io_out[0] O
io_out[10] O
io_out[11] O
io_out[12] O
io_out[13] O
io_out[14] O
io_out[15] O
io_out[16] O
io_out[17] O
io_out[18] O
io_out[19] O
io_out[1] O
io_out[20] O
io_out[21] O
io_out[22] O
io_out[23] O
io_out[24] O
io_out[25] O
io_out[26] O
io_out[27] O
io_out[28] O
io_out[29] O
io_out[2] O
io_out[30] O
io_out[31] O
io_out[32] O
io_out[33] O
io_out[34] O
io_out[35] O
io_out[36] O
io_out[37] O
io_out[3] O
io_out[4] O
io_out[5] O
io_out[6] O
io_out[7] O
io_out[8] O
io_out[9] O
la_data_in[0] I
la_data_in[10] I
la_data_in[11] I
la_data_in[12] I
la_data_in[13] I
la_data_in[14] I
la_data_in[15] I
la_data_in[16] I
la_data_in[17] I
la_data_in[18] I
la_data_in[19] I
la_data_in[1] I
la_data_in[20] I
la_data_in[21] I
la_data_in[22] I
la_data_in[23] I
la_data_in[24] I
la_data_in[25] I
la_data_in[26] I
la_data_in[27] I
la_data_in[28] I
la_data_in[29] I
la_data_in[2] I
la_data_in[30] I
la_data_in[31] I
la_data_in[32] I
la_data_in[33] I
la_data_in[34] I
la_data_in[35] I
la_data_in[36] I
la_data_in[37] I
la_data_in[38] I
la_data_in[39] I
la_data_in[3] I
la_data_in[40] I
la_data_in[41] I
la_data_in[42] I
la_data_in[43] I
la_data_in[44] I
la_data_in[45] I
la_data_in[46] I
la_data_in[47] I
la_data_in[48] I
la_data_in[49] I
la_data_in[4] I
la_data_in[50] I
la_data_in[51] I
la_data_in[52] I
la_data_in[53] I
la_data_in[54] I
la_data_in[55] I
la_data_in[56] I
la_data_in[57] I
la_data_in[58] I
la_data_in[59] I
la_data_in[5] I
la_data_in[60] I
la_data_in[61] I
la_data_in[62] I
la_data_in[63] I
la_data_in[6] I
la_data_in[7] I
la_data_in[8] I
la_data_in[9] I
la_data_out[0] O
la_data_out[10] O
la_data_out[11] O
la_data_out[12] O
la_data_out[13] O
la_data_out[14] O
la_data_out[15] O
la_data_out[16] O
la_data_out[17] O
la_data_out[18] O
la_data_out[19] O
la_data_out[1] O
la_data_out[20] O
la_data_out[21] O
la_data_out[22] O
la_data_out[23] O
la_data_out[24] O
la_data_out[25] O
la_data_out[26] O
la_data_out[27] O
la_data_out[28] O
la_data_out[29] O
la_data_out[2] O
la_data_out[30] O
la_data_out[31] O
la_data_out[32] O
la_data_out[33] O
la_data_out[34] O
la_data_out[35] O
la_data_out[36] O
la_data_out[37] O
la_data_out[38] O
la_data_out[39] O
la_data_out[3] O
la_data_out[40] O
la_data_out[41] O
la_data_out[42] O
la_data_out[43] O
la_data_out[44] O
la_data_out[45] O
la_data_out[46] O
la_data_out[47] O
la_data_out[48] O
la_data_out[49] O
la_data_out[4] O
la_data_out[50] O
la_data_out[51] O
la_data_out[52] O
la_data_out[53] O
la_data_out[54] O
la_data_out[55] O
la_data_out[56] O
la_data_out[57] O
la_data_out[58] O
la_data_out[59] O
la_data_out[5] O
la_data_out[60] O
la_data_out[61] O
la_data_out[62] O
la_data_out[63] O
la_data_out[6] O
la_data_out[7] O
la_data_out[8] O
la_data_out[9] O
la_oenb[0] I
la_oenb[10] I
la_oenb[11] I
la_oenb[12] I
la_oenb[13] I
la_oenb[14] I
la_oenb[15] I
la_oenb[16] I
la_oenb[17] I
la_oenb[18] I
la_oenb[19] I
la_oenb[1] I
la_oenb[20] I
la_oenb[21] I
la_oenb[22] I
la_oenb[23] I
la_oenb[24] I
la_oenb[25] I
la_oenb[26] I
la_oenb[27] I
la_oenb[28] I
la_oenb[29] I
la_oenb[2] I
la_oenb[30] I
la_oenb[31] I
la_oenb[32] I
la_oenb[33] I
la_oenb[34] I
la_oenb[35] I
la_oenb[36] I
la_oenb[37] I
la_oenb[38] I
la_oenb[39] I
la_oenb[3] I
la_oenb[40] I
la_oenb[41] I
la_oenb[42] I
la_oenb[43] I
la_oenb[44] I
la_oenb[45] I
la_oenb[46] I
la_oenb[47] I
la_oenb[48] I
la_oenb[49] I
la_oenb[4] I
la_oenb[50] I
la_oenb[51] I
la_oenb[52] I
la_oenb[53] I
la_oenb[54] I
la_oenb[55] I
la_oenb[56] I
la_oenb[57] I
la_oenb[58] I
la_oenb[59] I
la_oenb[5] I
la_oenb[60] I
la_oenb[61] I
la_oenb[62] I
la_oenb[63] I
la_oenb[6] I
la_oenb[7] I
la_oenb[8] I
la_oenb[9] I
user_clock2 I
user_irq[0] O
user_irq[1] O
user_irq[2] O
wb_clk_i I
wb_rst_i I
wbs_ack_o O
wbs_adr_i[0] I
wbs_adr_i[10] I
wbs_adr_i[11] I
wbs_adr_i[12] I
wbs_adr_i[13] I
wbs_adr_i[14] I
wbs_adr_i[15] I
wbs_adr_i[16] I
wbs_adr_i[17] I
wbs_adr_i[18] I
wbs_adr_i[19] I
wbs_adr_i[1] I
wbs_adr_i[20] I
wbs_adr_i[21] I
wbs_adr_i[22] I
wbs_adr_i[23] I
wbs_adr_i[24] I
wbs_adr_i[25] I
wbs_adr_i[26] I
wbs_adr_i[27] I
wbs_adr_i[28] I
wbs_adr_i[29] I
wbs_adr_i[2] I
wbs_adr_i[30] I
wbs_adr_i[31] I
wbs_adr_i[3] I
wbs_adr_i[4] I
wbs_adr_i[5] I
wbs_adr_i[6] I
wbs_adr_i[7] I
wbs_adr_i[8] I
wbs_adr_i[9] I
wbs_cyc_i I
wbs_dat_i[0] I
wbs_dat_i[10] I
wbs_dat_i[11] I
wbs_dat_i[12] I
wbs_dat_i[13] I
wbs_dat_i[14] I
wbs_dat_i[15] I
wbs_dat_i[16] I
wbs_dat_i[17] I
wbs_dat_i[18] I
wbs_dat_i[19] I
wbs_dat_i[1] I
wbs_dat_i[20] I
wbs_dat_i[21] I
wbs_dat_i[22] I
wbs_dat_i[23] I
wbs_dat_i[24] I
wbs_dat_i[25] I
wbs_dat_i[26] I
wbs_dat_i[27] I
wbs_dat_i[28] I
wbs_dat_i[29] I
wbs_dat_i[2] I
wbs_dat_i[30] I
wbs_dat_i[31] I
wbs_dat_i[3] I
wbs_dat_i[4] I
wbs_dat_i[5] I
wbs_dat_i[6] I
wbs_dat_i[7] I
wbs_dat_i[8] I
wbs_dat_i[9] I
wbs_dat_o[0] O
wbs_dat_o[10] O
wbs_dat_o[11] O
wbs_dat_o[12] O
wbs_dat_o[13] O
wbs_dat_o[14] O
wbs_dat_o[15] O
wbs_dat_o[16] O
wbs_dat_o[17] O
wbs_dat_o[18] O
wbs_dat_o[19] O
wbs_dat_o[1] O
wbs_dat_o[20] O
wbs_dat_o[21] O
wbs_dat_o[22] O
wbs_dat_o[23] O
wbs_dat_o[24] O
wbs_dat_o[25] O
wbs_dat_o[26] O
wbs_dat_o[27] O
wbs_dat_o[28] O
wbs_dat_o[29] O
wbs_dat_o[2] O
wbs_dat_o[30] O
wbs_dat_o[31] O
wbs_dat_o[3] O
wbs_dat_o[4] O
wbs_dat_o[5] O
wbs_dat_o[6] O
wbs_dat_o[7] O
wbs_dat_o[8] O
wbs_dat_o[9] O
wbs_sel_i[0] I
wbs_sel_i[1] I
wbs_sel_i[2] I
wbs_sel_i[3] I
wbs_stb_i I
wbs_we_i I

*D_NET *1 0.213895
*CONN
*P io_in[0] I
*I *419:rstn I *D saradc
*CAP
1 io_in[0] 0.0314539
2 *419:rstn 0.00139073
3 *1:9 0.037053
4 *1:7 0.0356623
5 *1:5 0.0314539
6 *419:rstn *419:result[3] 0
7 *419:rstn *419:result[1] 3.63093e-06
8 *419:rstn *419:cal 2.70815e-05
9 *419:rstn *419:clk 0.00718593
10 *1:9 *12:9 0.00175841
11 *1:9 *23:9 0.00132127
12 *1:9 *32:9 0.00242084
13 *1:9 *99:9 0.00341804
14 *1:9 *108:9 0.0106306
15 *1:9 *109:9 0.0501157
*RES
1 io_in[0] *1:5 223.63 
2 *1:5 *1:7 4.5 
3 *1:7 *1:9 356.516 
4 *1:9 *419:rstn 32.006 
*END

*D_NET *12 0.236739
*CONN
*P io_in[1] I
*I *419:clk I *D saradc
*CAP
1 io_in[1] 0.0313301
2 *419:clk 0.000411659
3 *12:9 0.0244422
4 *12:7 0.0240305
5 *12:5 0.0313301
6 *419:clk *419:result[0] 0.000205131
7 *419:clk *419:cal 5.50783e-05
8 *419:clk *419:en 0.00840804
9 *419:clk *111:17 8.07844e-06
10 *12:9 *23:9 0.10131
11 *12:9 *111:17 0.00626356
12 *419:rstn *419:clk 0.00718593
13 *1:9 *12:9 0.00175841
*RES
1 io_in[1] *12:5 222.718 
2 *12:5 *12:7 4.5 
3 *12:7 *12:9 303.316 
4 *12:9 *419:clk 34.666 
*END

*D_NET *23 0.278745
*CONN
*P io_in[2] I
*I *419:en I *D saradc
*CAP
1 io_in[2] 0.0309953
2 *419:en 0.000315782
3 *23:9 0.00116139
4 *23:7 0.000845613
5 *23:5 0.0309953
6 *419:en *419:result[0] 3.19219e-05
7 *419:en *419:valid 0.000377588
8 *419:en *419:cal 0.00887011
9 *23:9 *99:9 0.0941127
10 *419:clk *419:en 0.00840804
11 *1:9 *23:9 0.00132127
12 *12:9 *23:9 0.10131
*RES
1 io_in[2] *23:5 222.87 
2 *23:5 *23:7 4.5 
3 *23:7 *23:9 249.66 
4 *23:9 *419:en 36.642 
*END

*D_NET *24 0.0616752
*CONN
*P io_in[30] I
*I *419:vinp I *D saradc
*CAP
1 io_in[30] 0.00484487
2 *419:vinp 0.0259927
3 *24:11 0.0308376
*RES
1 io_in[30] *24:11 43.618 
2 *24:11 *419:vinp 184.718 
*END

*D_NET *26 0.0772549
*CONN
*P io_in[32] I
*I *419:vinn I *D saradc
*CAP
1 io_in[32] 0.0327413
2 *419:vinn 0.00588612
3 *26:5 0.0386274
*RES
1 io_in[32] *26:5 234.422 
2 *26:5 *419:vinn 49.85 
*END

*D_NET *32 0.237006
*CONN
*P io_in[3] I
*I *419:cal I *D saradc
*CAP
1 io_in[3] 0.0310644
2 *419:cal 0.000348
3 *32:9 0.000779166
4 *32:7 0.000431166
5 *32:5 0.0310644
6 *419:cal *419:result[1] 0.000292068
7 *419:cal *419:result[0] 0.000414771
8 *419:cal *419:valid 0.00977017
9 *419:cal *111:17 1.71854e-05
10 *32:9 *99:9 0.0793662
11 *32:9 *108:9 0.0720857
12 *419:en *419:cal 0.00887011
13 *419:clk *419:cal 5.50783e-05
14 *419:rstn *419:cal 2.70815e-05
15 *1:9 *32:9 0.00242084
*RES
1 io_in[3] *32:5 223.174 
2 *32:5 *32:7 4.5 
3 *32:7 *32:9 195.396 
4 *32:9 *419:cal 39.074 
*END

*D_NET *78 0.177461
*CONN
*P io_out[10] O
*I *419:result[7] I *D saradc
*CAP
1 io_out[10] 0.00100554
2 *419:result[7] 0.00023217
3 *78:13 0.0165757
4 *78:11 0.0163435
5 *78:9 0.00456014
6 *78:7 0.00556567
7 *78:9 *79:9 0.0627593
8 *78:9 *114:9 0.0419732
9 *78:13 *419:result[6] 0.0284454
*RES
1 io_out[10] *78:7 11.226 
2 *78:7 *78:9 155.268 
3 *78:9 *78:11 4.5 
4 *78:11 *78:13 196.004 
5 *78:13 *419:result[7] 1.71 
*END

*D_NET *79 0.214909
*CONN
*P io_out[11] O
*I *419:result[8] I *D saradc
*CAP
1 io_out[11] 0.00102617
2 *419:result[8] 0.0199088
3 *79:16 0
4 *79:11 0.0199088
5 *79:9 0.00453213
6 *79:7 0.0055583
7 *419:result[8] *80:13 0.0165086
8 *79:9 *80:9 0.0847072
9 *78:9 *79:9 0.0627593
*RES
1 io_out[11] *79:7 11.378 
2 *79:7 *79:9 205.276 
3 *79:9 *79:11 4.5 
4 *79:11 *419:result[8] 195.7 
5 *419:result[8] *79:16 0.118222 
*END

*D_NET *80 0.188524
*CONN
*P io_out[12] O
*I *419:result[9] I *D saradc
*CAP
1 io_out[12] 0.00115606
2 *419:result[9] 0.00019237
3 *80:13 0.0200754
4 *80:11 0.0198831
5 *80:9 0.0224224
6 *80:7 0.0235785
7 *419:result[8] *80:13 0.0165086
8 *79:9 *80:9 0.0847072
*RES
1 io_out[12] *80:7 11.53 
2 *80:7 *80:9 258.324 
3 *80:9 *80:11 4.5 
4 *80:11 *80:13 195.548 
5 *80:13 *419:result[9] 1.41686 
*END

*D_NET *99 0.263344
*CONN
*P io_out[2] O
*I *419:valid I *D saradc
*CAP
1 io_out[2] 0.0310299
2 *419:valid 0.000412295
3 *99:9 0.00175549
4 *99:7 0.0013432
5 *99:5 0.0310299
6 *419:valid *419:result[0] 0.0107083
7 *99:9 *108:9 1.97747e-05
8 *419:cal *419:valid 0.00977017
9 *419:en *419:valid 0.000377588
10 *1:9 *99:9 0.00341804
11 *23:9 *99:9 0.0941127
12 *32:9 *99:9 0.0793662
*RES
1 io_out[2] *99:5 223.022 
2 *99:5 *99:7 4.5 
3 *99:7 *99:9 231.876 
4 *99:9 *419:valid 40.898 
*END

*D_NET *108 0.221306
*CONN
*P io_out[3] O
*I *419:result[0] I *D saradc
*CAP
1 io_out[3] 0.031099
2 *419:result[0] 0.000427715
3 *108:9 0.000996844
4 *108:7 0.000569129
5 *108:5 0.031099
6 *419:result[0] *419:result[1] 0.0128548
7 *108:9 *109:9 0.0501632
8 *419:valid *419:result[0] 0.0107083
9 *419:cal *419:result[0] 0.000414771
10 *419:en *419:result[0] 3.19219e-05
11 *419:clk *419:result[0] 0.000205131
12 *1:9 *108:9 0.0106306
13 *32:9 *108:9 0.0720857
14 *99:9 *108:9 1.97747e-05
*RES
1 io_out[3] *108:5 223.326 
2 *108:5 *108:7 4.5 
3 *108:7 *108:9 177.612 
4 *108:9 *419:result[0] 45.458 
*END

*D_NET *109 0.1904
*CONN
*P io_out[4] O
*I *419:result[1] I *D saradc
*CAP
1 io_out[4] 0.0311336
2 *419:result[1] 0.000275771
3 *109:9 0.000335847
4 *109:7 6.00763e-05
5 *109:5 0.0311336
6 *419:result[1] *419:result[3] 0.0138809
7 *419:result[1] *111:17 0.000150525
8 *419:result[0] *419:result[1] 0.0128548
9 *419:cal *419:result[1] 0.000292068
10 *419:rstn *419:result[1] 3.63093e-06
11 *1:9 *109:9 0.0501157
12 *108:9 *109:9 0.0501632
*RES
1 io_out[4] *109:5 223.478 
2 *109:5 *109:7 4.5 
3 *109:7 *109:9 123.5 
4 *109:9 *419:result[1] 47.89 
*END

*D_NET *110 0.0995776
*CONN
*P io_out[5] O
*I *419:result[2] I *D saradc
*CAP
1 io_out[5] 0.0350619
2 *419:result[2] 0.00471222
3 *110:9 0.0147269
4 *110:7 0.0100147
5 *110:5 0.0350619
*RES
1 io_out[5] *110:5 252.206 
2 *110:5 *110:7 4.5 
3 *110:7 *110:9 69.54 
4 *110:9 *419:result[2] 49.448 
*END

*D_NET *111 0.0907987
*CONN
*P io_out[6] O
*I *419:result[3] I *D saradc
*CAP
1 io_out[6] 0.0309401
2 *419:result[3] 0.00278877
3 *111:17 0.00429914
4 *111:5 0.0324504
5 *419:result[1] *419:result[3] 0.0138809
6 *419:result[1] *111:17 0.000150525
7 *419:cal *111:17 1.71854e-05
8 *419:clk *111:17 8.07844e-06
9 *419:rstn *419:result[3] 0
10 *12:9 *111:17 0.00626356
*RES
1 io_out[6] *111:5 222.566 
2 *111:5 *111:17 31.512 
3 *111:17 *419:result[3] 42.12 
*END

*D_NET *112 0.056824
*CONN
*P io_out[7] O
*I *419:result[4] I *D saradc
*CAP
1 io_out[7] 0.000227135
2 *419:result[4] 0.0281849
3 *112:16 0
4 *112:11 0.028412
*RES
1 io_out[7] *112:11 2.09 
2 *112:11 *419:result[4] 202.54 
3 *419:result[4] *112:16 0.118222 
*END

*D_NET *113 0.0839665
*CONN
*P io_out[8] O
*I *419:result[5] I *D saradc
*CAP
1 io_out[8] 0.000964261
2 *419:result[5] 0.0272721
3 *113:16 0
4 *113:11 0.0272721
5 *113:9 0.00379171
6 *113:7 0.00475597
7 *113:9 *114:9 0.0199104
*RES
1 io_out[8] *113:7 10.922 
2 *113:7 *113:9 50.236 
3 *113:9 *113:11 4.5 
4 *113:11 *419:result[5] 196.156 
5 *419:result[5] *113:16 0.118222 
*END

*D_NET *114 0.133311
*CONN
*P io_out[9] O
*I *419:result[6] I *D saradc
*CAP
1 io_out[9] 0.000984899
2 *419:result[6] 0.0163486
3 *114:16 0
4 *114:11 0.0163486
5 *114:9 0.00415728
6 *114:7 0.00514217
7 *78:9 *114:9 0.0419732
8 *78:13 *419:result[6] 0.0284454
9 *113:9 *114:9 0.0199104
*RES
1 io_out[9] *114:7 11.074 
2 *114:7 *114:9 101.916 
3 *114:9 *114:11 4.5 
4 *114:11 *419:result[6] 196.004 
5 *419:result[6] *114:16 0.118222 
*END
