*SPEF "ieee 1481-1999"
*DESIGN "user_project_wrapper"
*DATE "11:11:11 Fri 11 11, 1111"
*VENDOR "OpenRCX"
*PROGRAM "Parallel Extraction"
*VERSION "1.0"
*DESIGN_FLOW "NAME_SCOPE LOCAL" "PIN_CAP NONE"
*DIVIDER /
*DELIMITER :
*BUS_DELIMITER []
*T_UNIT 1 NS
*C_UNIT 1 PF
*R_UNIT 1 OHM
*L_UNIT 1 HENRY

*NAME_MAP
*1 io_in[0]
*2 io_in[10]
*3 io_in[11]
*4 io_in[12]
*5 io_in[13]
*6 io_in[14]
*7 io_in[15]
*8 io_in[16]
*9 io_in[17]
*10 io_in[18]
*11 io_in[19]
*12 io_in[1]
*13 io_in[20]
*14 io_in[21]
*15 io_in[22]
*16 io_in[23]
*17 io_in[24]
*18 io_in[25]
*19 io_in[26]
*20 io_in[27]
*21 io_in[28]
*22 io_in[29]
*23 io_in[2]
*24 io_in[30]
*25 io_in[31]
*26 io_in[32]
*27 io_in[33]
*28 io_in[34]
*29 io_in[35]
*30 io_in[36]
*31 io_in[37]
*32 io_in[3]
*33 io_in[4]
*34 io_in[5]
*35 io_in[6]
*36 io_in[7]
*37 io_in[8]
*38 io_in[9]
*39 io_oeb[0]
*40 io_oeb[10]
*41 io_oeb[11]
*42 io_oeb[12]
*43 io_oeb[13]
*44 io_oeb[14]
*45 io_oeb[15]
*46 io_oeb[16]
*47 io_oeb[17]
*48 io_oeb[18]
*49 io_oeb[19]
*50 io_oeb[1]
*51 io_oeb[20]
*52 io_oeb[21]
*53 io_oeb[22]
*54 io_oeb[23]
*55 io_oeb[24]
*56 io_oeb[25]
*57 io_oeb[26]
*58 io_oeb[27]
*59 io_oeb[28]
*60 io_oeb[29]
*61 io_oeb[2]
*62 io_oeb[30]
*63 io_oeb[31]
*64 io_oeb[32]
*65 io_oeb[33]
*66 io_oeb[34]
*67 io_oeb[35]
*68 io_oeb[36]
*69 io_oeb[37]
*70 io_oeb[3]
*71 io_oeb[4]
*72 io_oeb[5]
*73 io_oeb[6]
*74 io_oeb[7]
*75 io_oeb[8]
*76 io_oeb[9]
*77 io_out[0]
*78 io_out[10]
*79 io_out[11]
*80 io_out[12]
*81 io_out[13]
*82 io_out[14]
*83 io_out[15]
*84 io_out[16]
*85 io_out[17]
*86 io_out[18]
*87 io_out[19]
*88 io_out[1]
*89 io_out[20]
*90 io_out[21]
*91 io_out[22]
*92 io_out[23]
*93 io_out[24]
*94 io_out[25]
*95 io_out[26]
*96 io_out[27]
*97 io_out[28]
*98 io_out[29]
*99 io_out[2]
*100 io_out[30]
*101 io_out[31]
*102 io_out[32]
*103 io_out[33]
*104 io_out[34]
*105 io_out[35]
*106 io_out[36]
*107 io_out[37]
*108 io_out[3]
*109 io_out[4]
*110 io_out[5]
*111 io_out[6]
*112 io_out[7]
*113 io_out[8]
*114 io_out[9]
*115 la_data_in[0]
*116 la_data_in[10]
*117 la_data_in[11]
*118 la_data_in[12]
*119 la_data_in[13]
*120 la_data_in[14]
*121 la_data_in[15]
*122 la_data_in[16]
*123 la_data_in[17]
*124 la_data_in[18]
*125 la_data_in[19]
*126 la_data_in[1]
*127 la_data_in[20]
*128 la_data_in[21]
*129 la_data_in[22]
*130 la_data_in[23]
*131 la_data_in[24]
*132 la_data_in[25]
*133 la_data_in[26]
*134 la_data_in[27]
*135 la_data_in[28]
*136 la_data_in[29]
*137 la_data_in[2]
*138 la_data_in[30]
*139 la_data_in[31]
*140 la_data_in[32]
*141 la_data_in[33]
*142 la_data_in[34]
*143 la_data_in[35]
*144 la_data_in[36]
*145 la_data_in[37]
*146 la_data_in[38]
*147 la_data_in[39]
*148 la_data_in[3]
*149 la_data_in[40]
*150 la_data_in[41]
*151 la_data_in[42]
*152 la_data_in[43]
*153 la_data_in[44]
*154 la_data_in[45]
*155 la_data_in[46]
*156 la_data_in[47]
*157 la_data_in[48]
*158 la_data_in[49]
*159 la_data_in[4]
*160 la_data_in[50]
*161 la_data_in[51]
*162 la_data_in[52]
*163 la_data_in[53]
*164 la_data_in[54]
*165 la_data_in[55]
*166 la_data_in[56]
*167 la_data_in[57]
*168 la_data_in[58]
*169 la_data_in[59]
*170 la_data_in[5]
*171 la_data_in[60]
*172 la_data_in[61]
*173 la_data_in[62]
*174 la_data_in[63]
*175 la_data_in[6]
*176 la_data_in[7]
*177 la_data_in[8]
*178 la_data_in[9]
*179 la_data_out[0]
*180 la_data_out[10]
*181 la_data_out[11]
*182 la_data_out[12]
*183 la_data_out[13]
*184 la_data_out[14]
*185 la_data_out[15]
*186 la_data_out[16]
*187 la_data_out[17]
*188 la_data_out[18]
*189 la_data_out[19]
*190 la_data_out[1]
*191 la_data_out[20]
*192 la_data_out[21]
*193 la_data_out[22]
*194 la_data_out[23]
*195 la_data_out[24]
*196 la_data_out[25]
*197 la_data_out[26]
*198 la_data_out[27]
*199 la_data_out[28]
*200 la_data_out[29]
*201 la_data_out[2]
*202 la_data_out[30]
*203 la_data_out[31]
*204 la_data_out[32]
*205 la_data_out[33]
*206 la_data_out[34]
*207 la_data_out[35]
*208 la_data_out[36]
*209 la_data_out[37]
*210 la_data_out[38]
*211 la_data_out[39]
*212 la_data_out[3]
*213 la_data_out[40]
*214 la_data_out[41]
*215 la_data_out[42]
*216 la_data_out[43]
*217 la_data_out[44]
*218 la_data_out[45]
*219 la_data_out[46]
*220 la_data_out[47]
*221 la_data_out[48]
*222 la_data_out[49]
*223 la_data_out[4]
*224 la_data_out[50]
*225 la_data_out[51]
*226 la_data_out[52]
*227 la_data_out[53]
*228 la_data_out[54]
*229 la_data_out[55]
*230 la_data_out[56]
*231 la_data_out[57]
*232 la_data_out[58]
*233 la_data_out[59]
*234 la_data_out[5]
*235 la_data_out[60]
*236 la_data_out[61]
*237 la_data_out[62]
*238 la_data_out[63]
*239 la_data_out[6]
*240 la_data_out[7]
*241 la_data_out[8]
*242 la_data_out[9]
*243 la_oenb[0]
*244 la_oenb[10]
*245 la_oenb[11]
*246 la_oenb[12]
*247 la_oenb[13]
*248 la_oenb[14]
*249 la_oenb[15]
*250 la_oenb[16]
*251 la_oenb[17]
*252 la_oenb[18]
*253 la_oenb[19]
*254 la_oenb[1]
*255 la_oenb[20]
*256 la_oenb[21]
*257 la_oenb[22]
*258 la_oenb[23]
*259 la_oenb[24]
*260 la_oenb[25]
*261 la_oenb[26]
*262 la_oenb[27]
*263 la_oenb[28]
*264 la_oenb[29]
*265 la_oenb[2]
*266 la_oenb[30]
*267 la_oenb[31]
*268 la_oenb[32]
*269 la_oenb[33]
*270 la_oenb[34]
*271 la_oenb[35]
*272 la_oenb[36]
*273 la_oenb[37]
*274 la_oenb[38]
*275 la_oenb[39]
*276 la_oenb[3]
*277 la_oenb[40]
*278 la_oenb[41]
*279 la_oenb[42]
*280 la_oenb[43]
*281 la_oenb[44]
*282 la_oenb[45]
*283 la_oenb[46]
*284 la_oenb[47]
*285 la_oenb[48]
*286 la_oenb[49]
*287 la_oenb[4]
*288 la_oenb[50]
*289 la_oenb[51]
*290 la_oenb[52]
*291 la_oenb[53]
*292 la_oenb[54]
*293 la_oenb[55]
*294 la_oenb[56]
*295 la_oenb[57]
*296 la_oenb[58]
*297 la_oenb[59]
*298 la_oenb[5]
*299 la_oenb[60]
*300 la_oenb[61]
*301 la_oenb[62]
*302 la_oenb[63]
*303 la_oenb[6]
*304 la_oenb[7]
*305 la_oenb[8]
*306 la_oenb[9]
*307 user_clock2
*308 user_irq[0]
*309 user_irq[1]
*310 user_irq[2]
*313 wb_clk_i
*314 wb_rst_i
*315 wbs_ack_o
*316 wbs_adr_i[0]
*317 wbs_adr_i[10]
*318 wbs_adr_i[11]
*319 wbs_adr_i[12]
*320 wbs_adr_i[13]
*321 wbs_adr_i[14]
*322 wbs_adr_i[15]
*323 wbs_adr_i[16]
*324 wbs_adr_i[17]
*325 wbs_adr_i[18]
*326 wbs_adr_i[19]
*327 wbs_adr_i[1]
*328 wbs_adr_i[20]
*329 wbs_adr_i[21]
*330 wbs_adr_i[22]
*331 wbs_adr_i[23]
*332 wbs_adr_i[24]
*333 wbs_adr_i[25]
*334 wbs_adr_i[26]
*335 wbs_adr_i[27]
*336 wbs_adr_i[28]
*337 wbs_adr_i[29]
*338 wbs_adr_i[2]
*339 wbs_adr_i[30]
*340 wbs_adr_i[31]
*341 wbs_adr_i[3]
*342 wbs_adr_i[4]
*343 wbs_adr_i[5]
*344 wbs_adr_i[6]
*345 wbs_adr_i[7]
*346 wbs_adr_i[8]
*347 wbs_adr_i[9]
*348 wbs_cyc_i
*349 wbs_dat_i[0]
*350 wbs_dat_i[10]
*351 wbs_dat_i[11]
*352 wbs_dat_i[12]
*353 wbs_dat_i[13]
*354 wbs_dat_i[14]
*355 wbs_dat_i[15]
*356 wbs_dat_i[16]
*357 wbs_dat_i[17]
*358 wbs_dat_i[18]
*359 wbs_dat_i[19]
*360 wbs_dat_i[1]
*361 wbs_dat_i[20]
*362 wbs_dat_i[21]
*363 wbs_dat_i[22]
*364 wbs_dat_i[23]
*365 wbs_dat_i[24]
*366 wbs_dat_i[25]
*367 wbs_dat_i[26]
*368 wbs_dat_i[27]
*369 wbs_dat_i[28]
*370 wbs_dat_i[29]
*371 wbs_dat_i[2]
*372 wbs_dat_i[30]
*373 wbs_dat_i[31]
*374 wbs_dat_i[3]
*375 wbs_dat_i[4]
*376 wbs_dat_i[5]
*377 wbs_dat_i[6]
*378 wbs_dat_i[7]
*379 wbs_dat_i[8]
*380 wbs_dat_i[9]
*381 wbs_dat_o[0]
*382 wbs_dat_o[10]
*383 wbs_dat_o[11]
*384 wbs_dat_o[12]
*385 wbs_dat_o[13]
*386 wbs_dat_o[14]
*387 wbs_dat_o[15]
*388 wbs_dat_o[16]
*389 wbs_dat_o[17]
*390 wbs_dat_o[18]
*391 wbs_dat_o[19]
*392 wbs_dat_o[1]
*393 wbs_dat_o[20]
*394 wbs_dat_o[21]
*395 wbs_dat_o[22]
*396 wbs_dat_o[23]
*397 wbs_dat_o[24]
*398 wbs_dat_o[25]
*399 wbs_dat_o[26]
*400 wbs_dat_o[27]
*401 wbs_dat_o[28]
*402 wbs_dat_o[29]
*403 wbs_dat_o[2]
*404 wbs_dat_o[30]
*405 wbs_dat_o[31]
*406 wbs_dat_o[3]
*407 wbs_dat_o[4]
*408 wbs_dat_o[5]
*409 wbs_dat_o[6]
*410 wbs_dat_o[7]
*411 wbs_dat_o[8]
*412 wbs_dat_o[9]
*413 wbs_sel_i[0]
*414 wbs_sel_i[1]
*415 wbs_sel_i[2]
*416 wbs_sel_i[3]
*417 wbs_stb_i
*418 wbs_we_i
*419 anan_logo
*420 saradc

*PORTS
io_in[0] I
io_in[10] I
io_in[11] I
io_in[12] I
io_in[13] I
io_in[14] I
io_in[15] I
io_in[16] I
io_in[17] I
io_in[18] I
io_in[19] I
io_in[1] I
io_in[20] I
io_in[21] I
io_in[22] I
io_in[23] I
io_in[24] I
io_in[25] I
io_in[26] I
io_in[27] I
io_in[28] I
io_in[29] I
io_in[2] I
io_in[30] I
io_in[31] I
io_in[32] I
io_in[33] I
io_in[34] I
io_in[35] I
io_in[36] I
io_in[37] I
io_in[3] I
io_in[4] I
io_in[5] I
io_in[6] I
io_in[7] I
io_in[8] I
io_in[9] I
io_oeb[0] O
io_oeb[10] O
io_oeb[11] O
io_oeb[12] O
io_oeb[13] O
io_oeb[14] O
io_oeb[15] O
io_oeb[16] O
io_oeb[17] O
io_oeb[18] O
io_oeb[19] O
io_oeb[1] O
io_oeb[20] O
io_oeb[21] O
io_oeb[22] O
io_oeb[23] O
io_oeb[24] O
io_oeb[25] O
io_oeb[26] O
io_oeb[27] O
io_oeb[28] O
io_oeb[29] O
io_oeb[2] O
io_oeb[30] O
io_oeb[31] O
io_oeb[32] O
io_oeb[33] O
io_oeb[34] O
io_oeb[35] O
io_oeb[36] O
io_oeb[37] O
io_oeb[3] O
io_oeb[4] O
io_oeb[5] O
io_oeb[6] O
io_oeb[7] O
io_oeb[8] O
io_oeb[9] O
io_out[0] O
io_out[10] O
io_out[11] O
io_out[12] O
io_out[13] O
io_out[14] O
io_out[15] O
io_out[16] O
io_out[17] O
io_out[18] O
io_out[19] O
io_out[1] O
io_out[20] O
io_out[21] O
io_out[22] O
io_out[23] O
io_out[24] O
io_out[25] O
io_out[26] O
io_out[27] O
io_out[28] O
io_out[29] O
io_out[2] O
io_out[30] O
io_out[31] O
io_out[32] O
io_out[33] O
io_out[34] O
io_out[35] O
io_out[36] O
io_out[37] O
io_out[3] O
io_out[4] O
io_out[5] O
io_out[6] O
io_out[7] O
io_out[8] O
io_out[9] O
la_data_in[0] I
la_data_in[10] I
la_data_in[11] I
la_data_in[12] I
la_data_in[13] I
la_data_in[14] I
la_data_in[15] I
la_data_in[16] I
la_data_in[17] I
la_data_in[18] I
la_data_in[19] I
la_data_in[1] I
la_data_in[20] I
la_data_in[21] I
la_data_in[22] I
la_data_in[23] I
la_data_in[24] I
la_data_in[25] I
la_data_in[26] I
la_data_in[27] I
la_data_in[28] I
la_data_in[29] I
la_data_in[2] I
la_data_in[30] I
la_data_in[31] I
la_data_in[32] I
la_data_in[33] I
la_data_in[34] I
la_data_in[35] I
la_data_in[36] I
la_data_in[37] I
la_data_in[38] I
la_data_in[39] I
la_data_in[3] I
la_data_in[40] I
la_data_in[41] I
la_data_in[42] I
la_data_in[43] I
la_data_in[44] I
la_data_in[45] I
la_data_in[46] I
la_data_in[47] I
la_data_in[48] I
la_data_in[49] I
la_data_in[4] I
la_data_in[50] I
la_data_in[51] I
la_data_in[52] I
la_data_in[53] I
la_data_in[54] I
la_data_in[55] I
la_data_in[56] I
la_data_in[57] I
la_data_in[58] I
la_data_in[59] I
la_data_in[5] I
la_data_in[60] I
la_data_in[61] I
la_data_in[62] I
la_data_in[63] I
la_data_in[6] I
la_data_in[7] I
la_data_in[8] I
la_data_in[9] I
la_data_out[0] O
la_data_out[10] O
la_data_out[11] O
la_data_out[12] O
la_data_out[13] O
la_data_out[14] O
la_data_out[15] O
la_data_out[16] O
la_data_out[17] O
la_data_out[18] O
la_data_out[19] O
la_data_out[1] O
la_data_out[20] O
la_data_out[21] O
la_data_out[22] O
la_data_out[23] O
la_data_out[24] O
la_data_out[25] O
la_data_out[26] O
la_data_out[27] O
la_data_out[28] O
la_data_out[29] O
la_data_out[2] O
la_data_out[30] O
la_data_out[31] O
la_data_out[32] O
la_data_out[33] O
la_data_out[34] O
la_data_out[35] O
la_data_out[36] O
la_data_out[37] O
la_data_out[38] O
la_data_out[39] O
la_data_out[3] O
la_data_out[40] O
la_data_out[41] O
la_data_out[42] O
la_data_out[43] O
la_data_out[44] O
la_data_out[45] O
la_data_out[46] O
la_data_out[47] O
la_data_out[48] O
la_data_out[49] O
la_data_out[4] O
la_data_out[50] O
la_data_out[51] O
la_data_out[52] O
la_data_out[53] O
la_data_out[54] O
la_data_out[55] O
la_data_out[56] O
la_data_out[57] O
la_data_out[58] O
la_data_out[59] O
la_data_out[5] O
la_data_out[60] O
la_data_out[61] O
la_data_out[62] O
la_data_out[63] O
la_data_out[6] O
la_data_out[7] O
la_data_out[8] O
la_data_out[9] O
la_oenb[0] I
la_oenb[10] I
la_oenb[11] I
la_oenb[12] I
la_oenb[13] I
la_oenb[14] I
la_oenb[15] I
la_oenb[16] I
la_oenb[17] I
la_oenb[18] I
la_oenb[19] I
la_oenb[1] I
la_oenb[20] I
la_oenb[21] I
la_oenb[22] I
la_oenb[23] I
la_oenb[24] I
la_oenb[25] I
la_oenb[26] I
la_oenb[27] I
la_oenb[28] I
la_oenb[29] I
la_oenb[2] I
la_oenb[30] I
la_oenb[31] I
la_oenb[32] I
la_oenb[33] I
la_oenb[34] I
la_oenb[35] I
la_oenb[36] I
la_oenb[37] I
la_oenb[38] I
la_oenb[39] I
la_oenb[3] I
la_oenb[40] I
la_oenb[41] I
la_oenb[42] I
la_oenb[43] I
la_oenb[44] I
la_oenb[45] I
la_oenb[46] I
la_oenb[47] I
la_oenb[48] I
la_oenb[49] I
la_oenb[4] I
la_oenb[50] I
la_oenb[51] I
la_oenb[52] I
la_oenb[53] I
la_oenb[54] I
la_oenb[55] I
la_oenb[56] I
la_oenb[57] I
la_oenb[58] I
la_oenb[59] I
la_oenb[5] I
la_oenb[60] I
la_oenb[61] I
la_oenb[62] I
la_oenb[63] I
la_oenb[6] I
la_oenb[7] I
la_oenb[8] I
la_oenb[9] I
user_clock2 I
user_irq[0] O
user_irq[1] O
user_irq[2] O
wb_clk_i I
wb_rst_i I
wbs_ack_o O
wbs_adr_i[0] I
wbs_adr_i[10] I
wbs_adr_i[11] I
wbs_adr_i[12] I
wbs_adr_i[13] I
wbs_adr_i[14] I
wbs_adr_i[15] I
wbs_adr_i[16] I
wbs_adr_i[17] I
wbs_adr_i[18] I
wbs_adr_i[19] I
wbs_adr_i[1] I
wbs_adr_i[20] I
wbs_adr_i[21] I
wbs_adr_i[22] I
wbs_adr_i[23] I
wbs_adr_i[24] I
wbs_adr_i[25] I
wbs_adr_i[26] I
wbs_adr_i[27] I
wbs_adr_i[28] I
wbs_adr_i[29] I
wbs_adr_i[2] I
wbs_adr_i[30] I
wbs_adr_i[31] I
wbs_adr_i[3] I
wbs_adr_i[4] I
wbs_adr_i[5] I
wbs_adr_i[6] I
wbs_adr_i[7] I
wbs_adr_i[8] I
wbs_adr_i[9] I
wbs_cyc_i I
wbs_dat_i[0] I
wbs_dat_i[10] I
wbs_dat_i[11] I
wbs_dat_i[12] I
wbs_dat_i[13] I
wbs_dat_i[14] I
wbs_dat_i[15] I
wbs_dat_i[16] I
wbs_dat_i[17] I
wbs_dat_i[18] I
wbs_dat_i[19] I
wbs_dat_i[1] I
wbs_dat_i[20] I
wbs_dat_i[21] I
wbs_dat_i[22] I
wbs_dat_i[23] I
wbs_dat_i[24] I
wbs_dat_i[25] I
wbs_dat_i[26] I
wbs_dat_i[27] I
wbs_dat_i[28] I
wbs_dat_i[29] I
wbs_dat_i[2] I
wbs_dat_i[30] I
wbs_dat_i[31] I
wbs_dat_i[3] I
wbs_dat_i[4] I
wbs_dat_i[5] I
wbs_dat_i[6] I
wbs_dat_i[7] I
wbs_dat_i[8] I
wbs_dat_i[9] I
wbs_dat_o[0] O
wbs_dat_o[10] O
wbs_dat_o[11] O
wbs_dat_o[12] O
wbs_dat_o[13] O
wbs_dat_o[14] O
wbs_dat_o[15] O
wbs_dat_o[16] O
wbs_dat_o[17] O
wbs_dat_o[18] O
wbs_dat_o[19] O
wbs_dat_o[1] O
wbs_dat_o[20] O
wbs_dat_o[21] O
wbs_dat_o[22] O
wbs_dat_o[23] O
wbs_dat_o[24] O
wbs_dat_o[25] O
wbs_dat_o[26] O
wbs_dat_o[27] O
wbs_dat_o[28] O
wbs_dat_o[29] O
wbs_dat_o[2] O
wbs_dat_o[30] O
wbs_dat_o[31] O
wbs_dat_o[3] O
wbs_dat_o[4] O
wbs_dat_o[5] O
wbs_dat_o[6] O
wbs_dat_o[7] O
wbs_dat_o[8] O
wbs_dat_o[9] O
wbs_sel_i[0] I
wbs_sel_i[1] I
wbs_sel_i[2] I
wbs_sel_i[3] I
wbs_stb_i I
wbs_we_i I

*D_NET *20 0.176525
*CONN
*P io_in[27] I
*I *420:user_input[0] I *D saradc
*CAP
1 io_in[27] 0.000751787
2 *420:user_input[0] 0.00476508
3 *20:9 0.0314471
4 *20:7 0.0274338
5 *20:9 *21:9 0.112127
*RES
1 io_in[27] *20:7 10.665 
2 *20:7 *20:9 349.65 
3 *20:9 *420:user_input[0] 42.165 
*END

*D_NET *21 0.217759
*CONN
*P io_in[28] I
*I *420:user_input[1] I *D saradc
*CAP
1 io_in[28] 0.000987103
2 *420:user_input[1] 0.0047435
3 *21:9 0.0100172
4 *21:7 0.00626076
5 *21:9 *22:9 0.0836233
6 *20:9 *21:9 0.112127
*RES
1 io_in[28] *21:7 10.845 
2 *21:7 *21:9 278.73 
3 *21:9 *420:user_input[1] 41.985 
*END

*D_NET *22 0.159844
*CONN
*P io_in[29] I
*I *420:user_input[2] I *D saradc
*CAP
1 io_in[29] 0.000828799
2 *420:user_input[2] 0.00472192
3 *22:9 0.00973098
4 *22:7 0.00583785
5 *22:9 *24:9 0.0551016
6 *21:9 *22:9 0.0836233
*RES
1 io_in[29] *22:7 11.025 
2 *22:7 *22:9 207.81 
3 *22:9 *420:user_input[2] 41.805 
*END

*D_NET *24 0.102974
*CONN
*P io_in[30] I
*I *420:user_input[3] I *D saradc
*CAP
1 io_in[30] 0.000867305
2 *420:user_input[3] 0.00334413
3 *24:9 0.0081111
4 *24:7 0.00563427
5 *420:user_input[3] *26:5 0.00332486
6 *24:9 *25:9 0.0265909
7 *22:9 *24:9 0.0551016
*RES
1 io_in[30] *24:7 11.205 
2 *24:7 *24:9 136.89 
3 *24:9 *420:user_input[3] 41.625 
*END

*D_NET *25 0.0461202
*CONN
*P io_in[31] I
*I *420:user_input[4] I *D saradc
*CAP
1 io_in[31] 0.000905811
2 *420:user_input[4] 0.00467876
3 *25:9 0.0088588
4 *25:7 0.00508585
5 *24:9 *25:9 0.0265909
*RES
1 io_in[31] *25:7 11.385 
2 *25:7 *25:9 65.97 
3 *25:9 *420:user_input[4] 41.445 
*END

*D_NET *26 0.0160911
*CONN
*P io_in[32] I
*I *420:user_input[5] I *D saradc
*CAP
1 io_in[32] 0.00567038
2 *420:user_input[5] 0.000712724
3 *26:5 0.0063831
4 *420:user_input[3] *26:5 0.00332486
*RES
1 io_in[32] *26:5 56.115 
2 *26:5 *420:user_input[5] 14.445 
*END

*D_NET *27 0.0300349
*CONN
*P io_in[33] I
*I *420:user_input[6] I *D saradc
*CAP
1 io_in[33] 0.00150071
2 *420:user_input[6] 0.00399925
3 *27:9 0.0135167
4 *27:7 0.0110182
*RES
1 io_in[33] *27:7 16.065 
2 *27:7 *27:9 75.69 
3 *27:9 *420:user_input[6] 36.765 
*END

*D_NET *28 0.0953653
*CONN
*P io_in[34] I
*I *420:user_input[7] I *D saradc
*CAP
1 io_in[34] 0.0090719
2 *420:user_input[7] 0.000182509
3 *28:17 0.00787346
4 *28:15 0.00933062
5 *28:5 0.0107116
6 *28:15 *29:9 0.0106002
7 *28:15 *29:15 0.000246411
8 *28:15 *30:15 2.19964e-05
9 *28:17 *29:17 0.0473266
*RES
1 io_in[34] *28:5 73.305 
2 *28:5 *28:15 40.5 
3 *28:15 *28:17 119.97 
4 *28:17 *420:user_input[7] 5.445 
*END

*D_NET *29 0.139356
*CONN
*P io_in[35] I
*I *420:user_input[8] I *D saradc
*CAP
1 io_in[35] 0.00903339
2 *420:user_input[8] 0.000121311
3 *29:17 0.00820912
4 *29:15 0.00815287
5 *29:9 0.00422794
6 *29:7 0.00416288
7 *29:5 0.00903339
8 *29:9 *30:9 0.0381499
9 *29:15 *30:15 9.19699e-05
10 *28:15 *29:9 0.0106002
11 *28:15 *29:15 0.000246411
12 *28:17 *29:17 0.0473266
*RES
1 io_in[35] *29:5 73.125 
2 *29:5 *29:7 4.5 
3 *29:7 *29:9 94.05 
4 *29:9 *29:15 9.81 
5 *29:15 *29:17 123.03 
6 *29:17 *420:user_input[8] 5.445 
*END

*D_NET *30 0.11786
*CONN
*P io_in[36] I
*I *420:user_input[9] I *D saradc
*CAP
1 io_in[36] 0.00899489
2 *420:user_input[9] 7.52367e-05
3 *30:17 0.0163708
4 *30:15 0.0165709
5 *30:9 0.0144325
6 *30:7 0.0141571
7 *30:5 0.00899489
8 *28:15 *30:15 2.19964e-05
9 *29:9 *30:9 0.0381499
10 *29:15 *30:15 9.19699e-05
*RES
1 io_in[36] *30:5 72.945 
2 *30:5 *30:7 4.5 
3 *30:7 *30:9 161.91 
4 *30:9 *30:15 11.07 
5 *30:15 *30:17 127.35 
6 *30:17 *420:user_input[9] 4.86 
*END

*D_NET *161 0.122332
*CONN
*P la_data_in[51] I
*I *420:en I *D saradc
*CAP
1 la_data_in[51] 0.00371286
2 *420:en 4.96368e-05
3 *161:13 0.0469215
4 *161:11 0.0468718
5 *161:9 0.0105318
6 *161:7 0.0142446
*RES
1 la_data_in[51] *161:7 32.265 
2 *161:7 *161:9 83.25 
3 *161:9 *161:11 4.5 
4 *161:11 *161:13 360.45 
5 *161:13 *420:en 4.84714 
*END

*D_NET *162 0.122931
*CONN
*P la_data_in[52] I
*I *420:cal I *D saradc
*CAP
1 la_data_in[52] 0.0504003
2 *420:cal 0.000567648
3 *162:9 0.0110651
4 *162:7 0.0104974
5 *162:5 0.0504003
*RES
1 la_data_in[52] *162:5 386.865 
2 *162:5 *162:7 4.5 
3 *162:7 *162:9 83.25 
4 *162:9 *420:cal 13.2171 
*END

*D_NET *227 0.126689
*CONN
*P la_data_out[53] O
*I *420:valid I *D saradc
*CAP
1 la_data_out[53] 0.0507452
2 *420:valid 0.000627792
3 *227:9 0.0125994
4 *227:7 0.0119716
5 *227:5 0.0507452
*RES
1 la_data_out[53] *227:5 389.565 
2 *227:5 *227:7 4.5 
3 *227:7 *227:9 95.49 
4 *227:9 *420:valid 13.0371 
*END

*D_NET *228 0.131548
*CONN
*P la_data_out[54] O
*I *420:result[0] I *D saradc
*CAP
1 la_data_out[54] 0.00120216
2 *420:result[0] 0.000110365
3 *228:13 0.0507123
4 *228:11 0.0506019
5 *228:9 0.0138594
6 *228:7 0.0150616
7 *228:13 *420:result[5] 0
*RES
1 la_data_out[54] *228:7 13.365 
2 *228:7 *228:9 111.15 
3 *228:9 *228:11 4.5 
4 *228:11 *228:13 388.89 
5 *228:13 *420:result[0] 5.38714 
*END

*D_NET *229 0.13402
*CONN
*P la_data_out[55] O
*I *420:result[1] I *D saradc
*CAP
1 la_data_out[55] 0.001563
2 *420:result[1] 0.000135954
3 *229:13 0.0506919
4 *229:11 0.050556
5 *229:9 0.014755
6 *229:7 0.016318
*RES
1 la_data_out[55] *229:7 16.065 
2 *229:7 *229:9 117.63 
3 *229:9 *229:11 4.5 
4 *229:11 *229:13 388.53 
5 *229:13 *420:result[1] 5.56714 
*END

*D_NET *230 0.135043
*CONN
*P la_data_out[56] O
*I *420:result[2] I *D saradc
*CAP
1 la_data_out[56] 0.00337949
2 *420:result[2] 2.69833e-05
3 *230:17 0.0127602
4 *230:15 0.0127333
5 *230:13 0.0513816
6 *230:11 0.0547611
*RES
1 la_data_out[56] *230:11 33.975 
2 *230:11 *230:13 394.65 
3 *230:13 *230:15 4.5 
4 *230:15 *230:17 102.15 
5 *230:17 *420:result[2] 0.167143 
*END

*D_NET *231 0.138071
*CONN
*P la_data_out[57] O
*I *420:result[3] I *D saradc
*CAP
1 la_data_out[57] 0.00190789
2 *420:result[3] 0.000114375
3 *231:13 0.0510241
4 *231:11 0.0509098
5 *231:9 0.0161037
6 *231:7 0.0180116
*RES
1 la_data_out[57] *231:7 18.765 
2 *231:7 *231:9 127.89 
3 *231:9 *231:11 4.5 
4 *231:11 *231:13 391.05 
5 *231:13 *420:result[3] 5.38714 
*END

*D_NET *232 0.140865
*CONN
*P la_data_out[58] O
*I *420:result[4] I *D saradc
*CAP
1 la_data_out[58] 0.00263033
2 *420:result[4] 0.000453712
3 *232:13 0.0509219
4 *232:11 0.0504682
5 *232:9 0.0168805
6 *232:7 0.0195109
*RES
1 la_data_out[58] *232:7 24.165 
2 *232:7 *232:9 134.37 
3 *232:9 *232:11 4.5 
4 *232:11 *232:13 387.63 
5 *232:13 *420:result[4] 8.17714 
*END

*D_NET *233 0.146833
*CONN
*P la_data_out[59] O
*I *420:result[5] I *D saradc
*CAP
1 la_data_out[59] 0.0517807
2 *420:result[5] 0.0028639
3 *233:9 0.0216359
4 *233:7 0.018772
5 *233:5 0.0517807
6 *228:13 *420:result[5] 0
*RES
1 la_data_out[59] *233:5 397.665 
2 *233:5 *233:7 4.5 
3 *233:7 *233:9 150.3 
4 *233:9 *420:result[5] 31.3071 
*END

*D_NET *235 0.146482
*CONN
*P la_data_out[60] O
*I *420:result[6] I *D saradc
*CAP
1 la_data_out[60] 0.00534706
2 *420:result[6] 0.015185
3 *235:15 0.015185
4 *235:13 0.0527089
5 *235:11 0.0527089
6 *235:9 0.00534706
7 *420:result[6] *236:17 0
*RES
1 la_data_out[60] *235:9 47.295 
2 *235:9 *235:11 4.5 
3 *235:11 *235:13 404.91 
4 *235:13 *235:15 4.5 
5 *235:15 *420:result[6] 121.05 
*END

*D_NET *236 0.149664
*CONN
*P la_data_out[61] O
*I *420:result[7] I *D saradc
*CAP
1 la_data_out[61] 0.00579665
2 *420:result[7] 0.000106355
3 *236:17 0.0175636
4 *236:15 0.0174573
5 *236:13 0.0514717
6 *236:11 0.0514717
7 *236:9 0.00579665
8 *420:result[6] *236:17 0
*RES
1 la_data_out[61] *236:9 48.375 
2 *236:9 *236:11 4.5 
3 *236:11 *236:13 395.73 
4 *236:13 *236:15 4.5 
5 *236:15 *236:17 139.95 
6 *236:17 *420:result[7] 0.887143 
*END

*D_NET *237 0.24696
*CONN
*P la_data_out[62] O
*I *420:result[8] I *D saradc
*CAP
1 la_data_out[62] 0.000854878
2 *420:result[8] 0.000126748
3 *237:13 0.0304109
4 *237:11 0.0302841
5 *237:9 0.0165811
6 *237:7 0.017436
7 *237:9 *238:9 0.0779255
8 *237:13 *238:13 0.0733407
*RES
1 la_data_out[62] *237:7 10.845 
2 *237:7 *237:9 205.83 
3 *237:9 *237:11 4.5 
4 *237:11 *237:13 411.75 
5 *237:13 *420:result[8] 5.20714 
*END

*D_NET *238 0.25047
*CONN
*P la_data_out[63] O
*I *420:result[9] I *D saradc
*CAP
1 la_data_out[63] 0.000815926
2 *420:result[9] 7.12161e-05
3 *238:13 0.0307313
4 *238:11 0.0306601
5 *238:9 0.0180544
6 *238:7 0.0188703
7 *238:13 *314:13 0
8 *237:9 *238:9 0.0779255
9 *237:13 *238:13 0.0733407
*RES
1 la_data_out[63] *238:7 10.665 
2 *238:7 *238:9 215.37 
3 *238:9 *238:11 4.5 
4 *238:11 *238:13 414.63 
5 *238:13 *420:result[9] 5.02714 
*END

*D_NET *313 0.256132
*CONN
*P wb_clk_i I
*I *420:clk I *D saradc
*CAP
1 wb_clk_i 0.0471899
2 *420:clk 0.00301621
3 *313:9 0.0808761
4 *313:7 0.0778599
5 *313:5 0.0471899
*RES
1 wb_clk_i *313:5 362.565 
2 *313:5 *313:7 4.5 
3 *313:7 *313:9 648.81 
4 *313:9 *420:clk 32.4771 
*END

*D_NET *314 0.312422
*CONN
*P wb_rst_i I
*I *420:rstn I *D saradc
*CAP
1 wb_rst_i 0.000815926
2 *420:rstn 7.12161e-05
3 *314:13 0.0487218
4 *314:11 0.0486506
5 *314:9 0.106673
6 *314:7 0.107489
7 *238:13 *314:13 0
*RES
1 wb_rst_i *314:7 10.665 
2 *314:7 *314:9 686.07 
3 *314:9 *314:11 4.5 
4 *314:11 *314:13 376.83 
5 *314:13 *420:rstn 5.02714 
*END
