* NGSPICE file created from saradc.ext - technology: gf180mcuD

.subckt XM2$3$1 a_n36_120# a_n116_n100# w_n460_n310# VSUBS
X0 w_n460_n310# a_n36_120# a_n116_n100# w_n460_n310# pfet_03v3 ad=0.44p pd=2.88u as=0.44p ps=2.88u w=1u l=0.28u
C0 a_n116_n100# w_n460_n310# 0.09188f
C1 a_n36_120# w_n460_n310# 0.143803f
C2 a_n116_n100# a_n36_120# 0.001764f
C3 a_n116_n100# VSUBS 0.04225f
C4 a_n36_120# VSUBS 0.082818f
C5 w_n460_n310# VSUBS 1.56551f
.ends

.subckt XM1$3$1 a_n36_20# a_n254_n386# a_28_n200#
X0 a_28_n200# a_n36_20# a_n254_n386# a_n254_n386# nfet_03v3 ad=0.44p pd=2.88u as=0.44p ps=2.88u w=1u l=0.28u
C0 a_28_n200# a_n36_20# 0.001764f
C1 a_28_n200# a_n254_n386# 0.134096f
C2 a_n36_20# a_n254_n386# 0.226575f
.ends

.subckt x4 out in vdd vss
XXM2$3$1_0 in out vdd vss XM2$3$1
XXM1$3$1_0 in vss out XM1$3$1
C0 out in 0.057341f
C1 in vdd 0.039699f
C2 vss in 0.018605f
C3 out vdd 0.102755f
C4 out vss 0.048617f
C5 vss vdd 0.057876f
C6 vss 0 0.19553f
C7 vdd 0 1.704834f
C8 out 0 0.450443f
C9 in 0 0.431461f
.ends

.subckt XM2$1$3 a_n36_120# a_n116_n100# w_n278_n310# VSUBS
X0 w_n278_n310# a_n36_120# a_n116_n100# w_n278_n310# pfet_03v3 ad=0.44p pd=2.88u as=0.44p ps=2.88u w=1u l=0.28u
C0 w_n278_n310# a_n36_120# 0.143685f
C1 w_n278_n310# a_n116_n100# 0.090454f
C2 a_n116_n100# a_n36_120# 0.001764f
C3 a_n116_n100# VSUBS 0.043675f
C4 a_n36_120# VSUBS 0.082818f
C5 w_n278_n310# VSUBS 1.57235f
.ends

.subckt XM1$1$3 a_n36_20# a_n254_n386# a_28_n200#
X0 a_28_n200# a_n36_20# a_n254_n386# a_n254_n386# nfet_03v3 ad=0.44p pd=2.88u as=0.44p ps=2.88u w=1u l=0.28u
C0 a_n36_20# a_28_n200# 0.001764f
C1 a_28_n200# a_n254_n386# 0.134096f
C2 a_n36_20# a_n254_n386# 0.22648f
.ends

.subckt x2 out in vdd vss
XXM2$1$3_0 in out vdd vss XM2$1$3
XXM1$1$3_0 in vss out XM1$1$3
C0 vss vdd 0.057427f
C1 vdd in 0.039609f
C2 vss in 0.017815f
C3 out vdd 0.093301f
C4 out vss 0.045442f
C5 out in 0.057341f
C6 vss 0 0.200924f
C7 vdd 0 1.717231f
C8 out 0 0.463681f
C9 in 0 0.432083f
.ends

.subckt XM4$5 a_540_n1607# a_258_n1293# a_258_n1793# a_396_n1607# a_476_n1387#
X0 a_540_n1607# a_476_n1387# a_396_n1607# a_258_n1793# nfet_03v3 ad=0.44p pd=2.88u as=0.44p ps=2.88u w=1u l=0.28u
C0 a_396_n1607# a_540_n1607# 0.06854f
C1 a_476_n1387# a_396_n1607# 0.001764f
C2 a_476_n1387# a_540_n1607# 0.001764f
C3 a_540_n1607# a_258_n1793# 0.065139f
C4 a_396_n1607# a_258_n1793# 0.065139f
C5 a_476_n1387# a_258_n1793# 0.220578f
.ends

.subckt XM3$5 a_n67_n1582# a_n349_n1268# a_n131_n1362# a_n211_n1582# a_n349_n1768#
X0 a_n67_n1582# a_n131_n1362# a_n211_n1582# a_n349_n1768# nfet_03v3 ad=0.44p pd=2.88u as=0.44p ps=2.88u w=1u l=0.28u
C0 a_n211_n1582# a_n67_n1582# 0.06854f
C1 a_n131_n1362# a_n211_n1582# 0.001764f
C2 a_n131_n1362# a_n67_n1582# 0.001764f
C3 a_n67_n1582# a_n349_n1768# 0.065139f
C4 a_n211_n1582# a_n349_n1768# 0.065139f
C5 a_n131_n1362# a_n349_n1768# 0.220578f
.ends

.subckt XM2$2$1 a_n36_120# a_n116_n100# w_n460_n310# VSUBS
X0 w_n460_n310# a_n36_120# a_n116_n100# w_n460_n310# pfet_03v3 ad=0.44p pd=2.88u as=0.44p ps=2.88u w=1u l=0.28u
C0 a_n116_n100# w_n460_n310# 0.09188f
C1 a_n36_120# a_n116_n100# 0.001764f
C2 a_n36_120# w_n460_n310# 0.143803f
C3 a_n116_n100# VSUBS 0.04225f
C4 a_n36_120# VSUBS 0.082818f
C5 w_n460_n310# VSUBS 1.56551f
.ends

.subckt XM1$2$1 a_n36_20# a_n254_n386# a_28_n200#
X0 a_28_n200# a_n36_20# a_n254_n386# a_n254_n386# nfet_03v3 ad=0.44p pd=2.88u as=0.44p ps=2.88u w=1u l=0.28u
C0 a_28_n200# a_n36_20# 0.001764f
C1 a_28_n200# a_n254_n386# 0.134096f
C2 a_n36_20# a_n254_n386# 0.226575f
.ends

.subckt x3 out in vdd vss
XXM2$2$1_0 in out vdd vss XM2$2$1
XXM1$2$1_0 in vss out XM1$2$1
C0 in vdd 0.039699f
C1 in vss 0.018605f
C2 in out 0.057341f
C3 vdd vss 0.057622f
C4 out vdd 0.102755f
C5 out vss 0.048617f
C6 vss 0 0.194402f
C7 vdd 0 1.705041f
C8 out 0 0.450443f
C9 in 0 0.431461f
.ends

.subckt XM1$5 a_n36_20# a_n254_n386# a_n254_114# a_28_n200#
X0 a_28_n200# a_n36_20# a_n254_n386# a_n254_n386# nfet_03v3 ad=0.44p pd=2.88u as=0.44p ps=2.88u w=1u l=0.28u
C0 a_28_n200# a_n36_20# 0.001764f
C1 a_28_n200# a_n254_n386# 0.134096f
C2 a_n36_20# a_n254_n386# 0.22648f
.ends

.subckt XM2$5 a_n36_120# a_n116_n100# w_n278_n310# VSUBS
X0 w_n278_n310# a_n36_120# a_n116_n100# w_n278_n310# pfet_03v3 ad=0.44p pd=2.88u as=0.44p ps=2.88u w=1u l=0.28u
C0 a_n116_n100# a_n36_120# 0.001764f
C1 a_n116_n100# w_n278_n310# 0.090454f
C2 w_n278_n310# a_n36_120# 0.143685f
C3 a_n116_n100# VSUBS 0.043675f
C4 a_n36_120# VSUBS 0.082818f
C5 w_n278_n310# VSUBS 1.57235f
.ends

.subckt x1 out in vdd XM1$5_0/a_n254_114# vss
XXM1$5_0 in vss XM1$5_0/a_n254_114# out XM1$5
XXM2$5_0 in out vdd vss XM2$5
C0 vdd out 0.093301f
C1 out in 0.057341f
C2 vss vdd 0.057306f
C3 vss in 0.017815f
C4 vdd in 0.039609f
C5 vss out 0.045442f
C6 vss 0 0.1996f
C7 out 0 0.463681f
C8 in 0 0.432083f
C9 vdd 0 1.717231f
.ends

.subckt latch Qn Q S R XM3$5_0/a_n211_n1582# x3_0/out x4_0/out XM4$5_0/a_540_n1607#
+ VSUBS
Xx4_0 x4_0/out S Q VSUBS x4
Xx2_0 Qn Q Q VSUBS x2
XXM4$5_0 XM4$5_0/a_540_n1607# VSUBS VSUBS Q x3_0/out XM4$5
XXM3$5_0 Qn VSUBS x4_0/out XM3$5_0/a_n211_n1582# VSUBS XM3$5
Xx3_0 x3_0/out R Q VSUBS x3
Xx1_0 Q Qn Q VSUBS VSUBS x1
C0 S VSUBS 0.033653f
C1 Q R 0.065254f
C2 S x4_0/out 0.115854f
C3 VSUBS x4_0/out 0.056312f
C4 S Q 0.053978f
C5 VSUBS Q 0.081616f
C6 x3_0/out XM4$5_0/a_540_n1607# 0.05058f
C7 x3_0/out R 0.115854f
C8 Qn XM4$5_0/a_540_n1607# 0.001478f
C9 Q x4_0/out 0.162322f
C10 VSUBS x3_0/out 0.056312f
C11 VSUBS XM3$5_0/a_n211_n1582# 0.004577f
C12 S Qn 0.011276f
C13 Qn VSUBS 0.201264f
C14 Q x3_0/out 0.210824f
C15 XM3$5_0/a_n211_n1582# x4_0/out 0.05058f
C16 Q XM3$5_0/a_n211_n1582# 0.002119f
C17 Qn x4_0/out 0.109327f
C18 Qn Q 1.569045f
C19 Qn x3_0/out 0.060761f
C20 VSUBS XM4$5_0/a_540_n1607# 0.004577f
C21 VSUBS R 0.033653f
C22 x3_0/out 0 0.589125f
C23 R 0 0.441972f
C24 XM3$5_0/a_n211_n1582# 0 0.065139f
C25 XM4$5_0/a_540_n1607# 0 0.065139f
C26 VSUBS 0 0.306028f
C27 Qn 0 0.639183f
C28 Q 0 6.695502f
C29 x4_0/out 0 0.589061f
C30 S 0 0.441972f
.ends

.subckt XM2$6 a_n36_120# a_n116_n100# w_n278_n310# VSUBS
X0 w_n278_n310# a_n36_120# a_n116_n100# w_n278_n310# pfet_03v3 ad=0.44p pd=2.88u as=0.44p ps=2.88u w=1u l=0.28u
C0 a_n116_n100# w_n278_n310# 0.090564f
C1 a_n36_120# w_n278_n310# 0.138578f
C2 a_n36_120# a_n116_n100# 0.001764f
C3 a_n116_n100# VSUBS 0.043675f
C4 a_n36_120# VSUBS 0.08816f
C5 w_n278_n310# VSUBS 1.2321f
.ends

.subckt XM1$6 a_n36_20# a_n254_n386# a_28_n200#
X0 a_28_n200# a_n36_20# a_n254_n386# a_n254_n386# nfet_03v3 ad=0.44p pd=2.88u as=0.44p ps=2.88u w=1u l=0.28u
C0 a_28_n200# a_n36_20# 0.001764f
C1 a_28_n200# a_n254_n386# 0.134177f
C2 a_n36_20# a_n254_n386# 0.22667f
.ends

.subckt inv$2 out in vdd vss
XXM2$6_0 in out vdd vss XM2$6
XXM1$6_0 in vss out XM1$6
C0 vss vdd 0.050184f
C1 vss out 0.056311f
C2 in vss 0.019395f
C3 out vdd 0.086562f
C4 in vdd 0.034991f
C5 in out 0.057341f
C6 vss 0 0.154858f
C7 vdd 0 1.342913f
C8 out 0 0.461919f
C9 in 0 0.440696f
.ends

.subckt buffer in out inv$2_1/in inv$2_1/vdd VSUBS
Xinv$2_0 inv$2_1/in in inv$2_1/vdd VSUBS inv$2
Xinv$2_1 out inv$2_1/in inv$2_1/vdd VSUBS inv$2
C0 VSUBS in 0.033849f
C1 inv$2_1/in in 0.118184f
C2 out VSUBS 0.027914f
C3 out inv$2_1/in 0.160621f
C4 inv$2_1/vdd VSUBS -0.035287f
C5 inv$2_1/vdd inv$2_1/in 0.122776f
C6 inv$2_1/vdd in 0.051816f
C7 VSUBS inv$2_1/in 0.084611f
C8 inv$2_1/vdd out 0.042403f
C9 out 0 0.544428f
C10 VSUBS 0 0.247812f
C11 inv$2_1/vdd 0 2.60626f
C12 inv$2_1/in 0 0.821157f
C13 in 0 0.478121f
.ends

.subckt XM3 a_n3152_1140# a_n3064_1048# w_n3314_932# a_n2964_1140# VSUBS
X0 a_n2964_1140# a_n3064_1048# a_n3152_1140# w_n3314_932# pfet_03v3 ad=0.88p pd=4.88u as=0.88p ps=4.88u w=2u l=0.5u
C0 w_n3314_932# a_n2964_1140# 0.009117f
C1 a_n3064_1048# a_n3152_1140# 0.002993f
C2 a_n3152_1140# w_n3314_932# 0.008969f
C3 a_n3152_1140# a_n2964_1140# 0.103318f
C4 a_n3064_1048# w_n3314_932# 0.157732f
C5 a_n3064_1048# a_n2964_1140# 0.002993f
C6 a_n2964_1140# VSUBS 0.100353f
C7 a_n3152_1140# VSUBS 0.100353f
C8 a_n3064_1048# VSUBS 0.130702f
C9 w_n3314_932# VSUBS 1.4688f
.ends

.subckt XM1 a_912_4129# a_995_4229# a_811_3903# a_1507_3903# a_995_4041#
X0 a_995_4229# a_912_4129# a_995_4041# a_811_3903# nfet_03v3 ad=0.88p pd=4.88u as=0.88p ps=4.88u w=2u l=0.5u
C0 a_995_4229# a_912_4129# 0.002993f
C1 a_912_4129# a_995_4041# 0.002993f
C2 a_995_4229# a_995_4041# 0.103318f
C3 a_995_4041# a_811_3903# 0.109266f
C4 a_912_4129# a_811_3903# 0.288275f
C5 a_995_4229# a_811_3903# 0.109266f
.ends

.subckt XMs a_1030_4680# a_1030_4868# a_947_4768# a_846_4542#
X0 a_1030_4868# a_947_4768# a_1030_4680# a_846_4542# nfet_03v3 ad=0.88p pd=4.88u as=0.88p ps=4.88u w=2u l=0.5u
C0 a_947_4768# a_1030_4680# 0.002993f
C1 a_1030_4680# a_1030_4868# 0.103318f
C2 a_947_4768# a_1030_4868# 0.002993f
C3 a_1030_4680# a_846_4542# 0.387117f
C4 a_947_4768# a_846_4542# 0.288368f
C5 a_1030_4868# a_846_4542# 0.109266f
.ends

.subckt cap_mim_2p0fF_8JNR63 m4_n3440_n548# m4_n3800_n668# VSUBS
X0 m4_n3440_n548# m4_n3800_n668# cap_mim_2f0_m4m5_noshield c_width=8u c_length=8u
C0 m4_n3440_n548# m4_n3800_n668# 0.646322f
C1 m4_n3440_n548# VSUBS 1.17298f
C2 m4_n3800_n668# VSUBS 1.64833f
.ends

.subckt sw_cap_unit in out VSUBS
Xcap_mim_2p0fF_8JNR63_0 out in VSUBS cap_mim_2p0fF_8JNR63
C0 out VSUBS 1.17298f
C1 in VSUBS 1.64833f
.ends

.subckt sw_cap out in VSUBS
Xsw_cap_unit_0 in out VSUBS sw_cap_unit
Xsw_cap_unit_1 in out VSUBS sw_cap_unit
Xsw_cap_unit_2 in out VSUBS sw_cap_unit
Xsw_cap_unit_3 in out VSUBS sw_cap_unit
Xsw_cap_unit_4 in out VSUBS sw_cap_unit
C0 out in 2.231591f
C1 out VSUBS 6.064711f
C2 in VSUBS 7.39096f
.ends

.subckt XMs1 a_n2529_n616# a_n2717_n616# a_n2629_n699# a_n2855_n800#
X0 a_n2529_n616# a_n2629_n699# a_n2717_n616# a_n2855_n800# nfet_03v3 ad=0.88p pd=4.88u as=0.88p ps=4.88u w=2u l=0.5u
C0 a_n2529_n616# a_n2629_n699# 0.002993f
C1 a_n2717_n616# a_n2629_n699# 0.002993f
C2 a_n2717_n616# a_n2529_n616# 0.103318f
C3 a_n2529_n616# a_n2855_n800# 0.109266f
C4 a_n2717_n616# a_n2855_n800# 0.177295f
C5 a_n2629_n699# a_n2855_n800# 0.288368f
.ends

.subckt XM4 a_n2550_442# a_n2362_442# w_n2712_234# a_n2462_359# VSUBS
X0 a_n2362_442# a_n2462_359# a_n2550_442# w_n2712_234# pfet_03v3 ad=0.88p pd=4.88u as=0.88p ps=4.88u w=2u l=0.5u
C0 a_n2362_442# w_n2712_234# 0.008969f
C1 a_n2550_442# a_n2362_442# 0.103318f
C2 a_n2462_359# a_n2362_442# 0.002993f
C3 a_n2550_442# w_n2712_234# 0.058295f
C4 a_n2462_359# w_n2712_234# 0.173648f
C5 a_n2462_359# a_n2550_442# 0.002993f
C6 a_n2362_442# VSUBS 0.100353f
C7 a_n2550_442# VSUBS 0.119847f
C8 a_n2462_359# VSUBS 0.147064f
C9 w_n2712_234# VSUBS 1.4688f
.ends

.subckt XM2_inv a_n36_120# a_n116_n100# w_n278_n310# VSUBS
X0 w_n278_n310# a_n36_120# a_n116_n100# w_n278_n310# pfet_03v3 ad=0.44p pd=2.88u as=0.44p ps=2.88u w=1u l=0.28u
C0 a_n116_n100# w_n278_n310# 0.090564f
C1 a_n36_120# w_n278_n310# 0.138578f
C2 a_n36_120# a_n116_n100# 0.001764f
C3 a_n116_n100# VSUBS 0.043675f
C4 a_n36_120# VSUBS 0.08816f
C5 w_n278_n310# VSUBS 1.2321f
.ends

.subckt XM1_inv a_n36_20# a_n254_n386# a_28_n200#
X0 a_28_n200# a_n36_20# a_n254_n386# a_n254_n386# nfet_03v3 ad=0.44p pd=2.88u as=0.44p ps=2.88u w=1u l=0.28u
C0 a_28_n200# a_n36_20# 0.001764f
C1 a_28_n200# a_n254_n386# 0.134177f
C2 a_n36_20# a_n254_n386# 0.22667f
.ends

.subckt inv out in vdd vss
XXM2_inv_0 in out vdd vss XM2_inv
XXM1_inv_0 in vss out XM1_inv
C0 out vss 0.056311f
C1 in vss 0.019395f
C2 vss vdd 0.050184f
C3 in out 0.057341f
C4 out vdd 0.086562f
C5 in vdd 0.034991f
C6 vss 0 0.154858f
C7 vdd 0 1.342913f
C8 out 0 0.461919f
C9 in 0 0.440696f
.ends

.subckt XM2 a_912_3686# a_811_3460# a_995_3786# a_1507_3460# a_995_3598#
X0 a_995_3786# a_912_3686# a_995_3598# a_811_3460# nfet_03v3 ad=0.88p pd=4.88u as=0.88p ps=4.88u w=2u l=0.5u
C0 a_912_3686# a_995_3786# 0.002993f
C1 a_995_3598# a_995_3786# 0.103318f
C2 a_995_3598# a_912_3686# 0.002993f
C3 a_995_3598# a_811_3460# 0.109266f
C4 a_912_3686# a_811_3460# 0.288275f
C5 a_995_3786# a_811_3460# 0.109266f
.ends

.subckt XMs2 a_n3762_561# a_n3988_469# a_n3662_653# a_n3850_653# a_n3988_1165#
X0 a_n3662_653# a_n3762_561# a_n3850_653# a_n3988_469# nfet_03v3 ad=0.88p pd=4.88u as=0.88p ps=4.88u w=2u l=0.5u
C0 a_n3850_653# a_n3762_561# 0.002993f
C1 a_n3662_653# a_n3762_561# 0.002993f
C2 a_n3662_653# a_n3850_653# 0.103318f
C3 a_n3662_653# a_n3988_469# 0.109266f
C4 a_n3850_653# a_n3988_469# 0.109266f
C5 a_n3762_561# a_n3988_469# 0.288275f
.ends

.subckt bootstrapped_sw in vdd vss en enb out vs vg vbsh vbsl
XXM3_0 vbsh vg XM4_0/w_n2712_234# vdd vss XM3
XXM1_0 vg vbsl vss vss in XM1
XXMs_0 out in vg vss XMs
Xsw_cap_0 vbsh vbsl vss sw_cap
XXMs1_0 vs vg vdd vss XMs1
XXM4_0 vg vbsh XM4_0/w_n2712_234# enb vss XM4
Xinv_0 enb en vdd vss inv
XXM2_0 enb vss vss vss vbsl XM2
XXMs2_0 enb vss vss vs vss XMs2
C0 XM4_0/w_n2712_234# vdd 0.079362f
C1 vbsh out 0.100712f
C2 vs vbsl 0.001422f
C3 XM4_0/w_n2712_234# out 0.005706f
C4 vdd vg 0.447812f
C5 vbsh enb 0.052707f
C6 XM4_0/w_n2712_234# vbsh 0.101815f
C7 vbsl vdd 0.005409f
C8 vg out 0.04429f
C9 XM4_0/w_n2712_234# enb 0.041524f
C10 vbsh vg 0.144325f
C11 vbsl out 0.058082f
C12 in vbsh 0.008752f
C13 en vdd 0.065092f
C14 vg enb 0.612109f
C15 XM4_0/w_n2712_234# vg 0.080093f
C16 vbsl vbsh 0.025766f
C17 vbsl enb 0.017274f
C18 XM4_0/w_n2712_234# vbsl 0.009881f
C19 vs enb 0.00376f
C20 vdd out 0.017908f
C21 in vg 0.075595f
C22 vbsl vg 0.046114f
C23 vdd vbsh 0.168905f
C24 vs vg 0.01049f
C25 en enb 0.029269f
C26 in vbsl 0.299565f
C27 vdd enb 0.448382f
C28 out vss 1.088543f
C29 vs vss 0.072259f
C30 enb vss 1.595319f
C31 vdd vss 3.106074f
C32 en vss 0.642295f
C33 XM4_0/w_n2712_234# vss 1.968192f
C34 vbsh vss 7.100617f
C35 vbsl vss 8.368301f
C36 in vss 0.308876f
C37 vg vss 1.218873f
.ends

.subckt inv$1 VSS ZN I VDD VNW VPW
X0 VDD I ZN VNW pfet_06v0 ad=1.2078p pd=4.42u as=0.4575p ps=1.97u w=1.22u l=0.5u
X1 ZN I VSS VPW nfet_06v0 ad=0.2255p pd=1.37u as=0.5084p ps=2.88u w=0.82u l=0.6u
X2 VSS I ZN VPW nfet_06v0 ad=0.8118p pd=3.62u as=0.2255p ps=1.37u w=0.82u l=0.6u
X3 ZN I VDD VNW pfet_06v0 ad=0.4575p pd=1.97u as=0.7564p ps=3.68u w=1.22u l=0.5u
C0 VSS ZN 0.180794f
C1 VNW ZN 0.023676f
C2 VDD ZN 0.271625f
C3 VDD VSS 0.029045f
C4 VDD VNW 0.082022f
C5 VNW VSS 0.006277f
C6 I ZN 0.58604f
C7 VDD I 0.074838f
C8 VSS I 0.091531f
C9 VNW I 0.285482f
C10 VSS VPW 0.296769f
C11 ZN VPW 0.099188f
C12 VDD VPW 0.238483f
C13 I VPW 0.610668f
C14 VNW VPW 1.31158f
.ends

.subckt dummy VSS ZN I VDD VNW VPW
X0 VSS I ZN VPW nfet_06v0 ad=0.8118p pd=3.62u as=0.2255p ps=1.37u w=0.82u l=0.6u
X1 ZN I VSS VPW nfet_06v0 ad=0.2255p pd=1.37u as=0.5084p ps=2.88u w=0.82u l=0.6u
X2 VDD I ZN VNW pfet_06v0 ad=1.2078p pd=4.42u as=0.4575p ps=1.97u w=1.22u l=0.5u
X3 ZN I VDD VNW pfet_06v0 ad=0.4575p pd=1.97u as=0.7564p ps=3.68u w=1.22u l=0.5u
C0 VDD ZN 0.271625f
C1 VNW ZN 0.026913f
C2 VSS ZN 0.180794f
C3 VDD VNW 0.108083f
C4 VDD VSS 0.035859f
C5 VNW VSS 0.011638f
C6 I ZN 0.58604f
C7 VDD I 0.075475f
C8 VNW I 0.291591f
C9 VSS I 0.092168f
C10 VSS VPW 0.337898f
C11 ZN VPW 0.095951f
C12 VDD VPW 0.258911f
C13 I VPW 0.604559f
C14 VNW VPW 1.53535f
.ends

.subckt inv_renketu dummy_1/I inv$1_8/I inv$1_1/I inv$1_3/I dummy_0/ZN inv$1_5/I dummy_0/I
+ inv$1_7/I inv$1_9/ZN inv$1_6/ZN inv$1_0/ZN inv$1_9/VNW inv$1_0/I inv$1_4/ZN inv$1_9/I
+ inv$1_2/I inv$1_10/I inv$1_7/ZN inv$1_1/ZN inv$1_3/ZN inv$1_4/I inv$1_8/ZN inv$1_9/VSS
+ inv$1_9/VDD inv$1_10/ZN VSUBS inv$1_6/I inv$1_2/ZN inv$1_5/ZN
Xinv$1_10 inv$1_9/VSS inv$1_10/ZN inv$1_10/I inv$1_9/VDD inv$1_9/VNW VSUBS inv$1
Xinv$1_0 inv$1_9/VSS inv$1_0/ZN inv$1_0/I inv$1_9/VDD inv$1_9/VNW VSUBS inv$1
Xinv$1_1 inv$1_9/VSS inv$1_1/ZN inv$1_1/I inv$1_9/VDD inv$1_9/VNW VSUBS inv$1
Xinv$1_2 inv$1_9/VSS inv$1_2/ZN inv$1_2/I inv$1_9/VDD inv$1_9/VNW VSUBS inv$1
Xinv$1_3 inv$1_9/VSS inv$1_3/ZN inv$1_3/I inv$1_9/VDD inv$1_9/VNW VSUBS inv$1
Xinv$1_4 inv$1_9/VSS inv$1_4/ZN inv$1_4/I inv$1_9/VDD inv$1_9/VNW VSUBS inv$1
Xinv$1_5 inv$1_9/VSS inv$1_5/ZN inv$1_5/I inv$1_9/VDD inv$1_9/VNW VSUBS inv$1
Xinv$1_6 inv$1_9/VSS inv$1_6/ZN inv$1_6/I inv$1_9/VDD inv$1_9/VNW VSUBS inv$1
Xinv$1_7 inv$1_9/VSS inv$1_7/ZN inv$1_7/I inv$1_9/VDD inv$1_9/VNW VSUBS inv$1
Xinv$1_8 inv$1_9/VSS inv$1_8/ZN inv$1_8/I inv$1_9/VDD inv$1_9/VNW VSUBS inv$1
Xinv$1_9 inv$1_9/VSS inv$1_9/ZN inv$1_9/I inv$1_9/VDD inv$1_9/VNW VSUBS inv$1
Xdummy_0 inv$1_9/VSS dummy_0/ZN dummy_0/I inv$1_9/VDD inv$1_9/VNW VSUBS dummy
Xdummy_1 inv$1_9/VSS dummy_1/ZN dummy_1/I inv$1_9/VDD inv$1_9/VNW VSUBS dummy
C0 inv$1_9/ZN inv$1_8/ZN 0.161793f
C1 inv$1_9/VNW dummy_0/ZN -0.002275f
C2 inv$1_9/VNW inv$1_10/I 0.010403f
C3 inv$1_3/ZN inv$1_0/ZN 0.161792f
C4 inv$1_9/VSS inv$1_6/I 0.104553f
C5 inv$1_9/VNW inv$1_0/I 0.011179f
C6 inv$1_9/VNW inv$1_4/I 0.010403f
C7 inv$1_9/VDD inv$1_9/ZN 0.104396f
C8 inv$1_9/ZN inv$1_10/ZN 0.161792f
C9 inv$1_0/ZN inv$1_9/VSS 0.003829f
C10 inv$1_3/I inv$1_9/VDD 0.00333f
C11 inv$1_6/ZN inv$1_5/ZN 0.161792f
C12 inv$1_9/VDD inv$1_5/ZN 0.104396f
C13 inv$1_4/ZN inv$1_9/VDD 0.104396f
C14 inv$1_7/ZN inv$1_8/I 0.002086f
C15 inv$1_3/ZN inv$1_9/VNW 0.006066f
C16 inv$1_3/I inv$1_1/ZN 0.028928f
C17 inv$1_0/I dummy_0/I 0.017781f
C18 inv$1_9/VNW inv$1_9/VSS -0.005361f
C19 inv$1_9/ZN inv$1_10/I 0.002086f
C20 inv$1_1/ZN inv$1_4/ZN 0.161792f
C21 inv$1_8/ZN inv$1_7/I 0.028928f
C22 inv$1_8/ZN inv$1_9/I 0.002086f
C23 inv$1_6/I inv$1_7/ZN 0.028928f
C24 inv$1_3/I inv$1_0/I 0.084161f
C25 inv$1_6/ZN inv$1_7/I 0.002086f
C26 inv$1_9/VDD inv$1_7/I 0.00333f
C27 inv$1_4/I inv$1_5/ZN 0.028928f
C28 inv$1_9/I inv$1_10/ZN 0.028928f
C29 inv$1_9/VDD inv$1_9/I 0.00333f
C30 inv$1_5/I inv$1_6/ZN 0.028928f
C31 inv$1_4/I inv$1_4/ZN 0.031424f
C32 inv$1_5/I inv$1_9/VDD 0.00333f
C33 inv$1_9/VNW inv$1_8/I 0.010403f
C34 inv$1_2/I inv$1_9/VDD 0.00333f
C35 inv$1_3/ZN inv$1_3/I 0.031424f
C36 inv$1_2/I inv$1_10/ZN 0.002086f
C37 inv$1_9/VNW inv$1_1/I 0.010403f
C38 inv$1_9/VDD inv$1_8/ZN 0.104396f
C39 inv$1_9/VSS inv$1_9/ZN 0.003829f
C40 inv$1_9/VNW inv$1_7/ZN 0.006066f
C41 inv$1_3/I inv$1_9/VSS 0.104553f
C42 inv$1_2/I inv$1_2/ZN 0.031424f
C43 inv$1_9/VNW dummy_1/ZN -0.001925f
C44 inv$1_2/I dummy_1/I 0.021288f
C45 inv$1_9/VSS inv$1_5/ZN 0.003829f
C46 inv$1_9/VSS inv$1_4/ZN 0.003829f
C47 inv$1_9/VNW inv$1_6/I 0.010403f
C48 inv$1_9/I inv$1_10/I 0.084161f
C49 inv$1_9/VDD inv$1_6/ZN 0.104396f
C50 inv$1_2/I inv$1_10/I 0.084161f
C51 inv$1_9/VDD inv$1_10/ZN 0.104396f
C52 inv$1_9/VNW inv$1_0/ZN 0.008403f
C53 inv$1_5/I inv$1_4/I 0.084161f
C54 inv$1_9/ZN inv$1_8/I 0.028928f
C55 inv$1_2/ZN inv$1_9/VDD 0.107277f
C56 inv$1_2/ZN inv$1_10/ZN 0.161793f
C57 inv$1_3/I inv$1_1/I 0.084161f
C58 inv$1_1/ZN inv$1_9/VDD 0.104396f
C59 inv$1_1/I inv$1_4/ZN 0.028928f
C60 inv$1_9/VDD dummy_0/ZN 0.001671f
C61 inv$1_9/VDD inv$1_10/I 0.00333f
C62 inv$1_10/I inv$1_10/ZN 0.031424f
C63 inv$1_9/VSS inv$1_7/I 0.104553f
C64 inv$1_9/VSS inv$1_9/I 0.104553f
C65 inv$1_2/ZN dummy_1/I 0.003027f
C66 inv$1_5/I inv$1_9/VSS 0.104553f
C67 inv$1_0/I inv$1_9/VDD 0.00333f
C68 inv$1_9/VSS inv$1_2/I 0.107646f
C69 inv$1_0/ZN dummy_0/I 0.023262f
C70 inv$1_6/I inv$1_5/ZN 0.002086f
C71 inv$1_4/I inv$1_9/VDD 0.00333f
C72 inv$1_2/ZN inv$1_10/I 0.028928f
C73 inv$1_9/VSS inv$1_8/ZN 0.003829f
C74 inv$1_3/I inv$1_0/ZN 0.002086f
C75 inv$1_3/ZN inv$1_9/VDD 0.104396f
C76 inv$1_8/I inv$1_7/I 0.084161f
C77 inv$1_8/I inv$1_9/I 0.084161f
C78 inv$1_0/I dummy_0/ZN 0.002409f
C79 inv$1_4/I inv$1_1/ZN 0.002086f
C80 inv$1_9/VSS inv$1_6/ZN 0.003829f
C81 inv$1_9/VSS inv$1_10/ZN 0.003829f
C82 inv$1_9/VSS inv$1_9/VDD -0.006814f
C83 inv$1_9/VNW inv$1_9/ZN 0.006066f
C84 inv$1_9/VNW inv$1_3/I 0.010403f
C85 inv$1_3/ZN inv$1_1/ZN 0.161793f
C86 inv$1_7/ZN inv$1_7/I 0.031424f
C87 inv$1_8/ZN inv$1_8/I 0.031424f
C88 inv$1_9/VNW inv$1_5/ZN 0.006066f
C89 inv$1_9/VNW inv$1_4/ZN 0.006066f
C90 inv$1_9/VSS inv$1_2/ZN 0.003829f
C91 inv$1_6/I inv$1_7/I 0.084161f
C92 inv$1_2/I dummy_1/ZN 0.027478f
C93 inv$1_5/I inv$1_6/I 0.084161f
C94 inv$1_3/ZN inv$1_0/I 0.028928f
C95 inv$1_9/VSS inv$1_1/ZN 0.003829f
C96 inv$1_7/ZN inv$1_8/ZN 0.161792f
C97 inv$1_9/VSS dummy_0/ZN 0.001445f
C98 inv$1_9/VSS inv$1_10/I 0.104553f
C99 inv$1_9/VDD inv$1_8/I 0.00333f
C100 inv$1_9/VSS inv$1_0/I 0.108299f
C101 inv$1_1/I inv$1_9/VDD 0.00333f
C102 inv$1_4/I inv$1_9/VSS 0.104553f
C103 inv$1_6/ZN inv$1_7/ZN 0.161793f
C104 inv$1_9/VDD inv$1_7/ZN 0.104396f
C105 inv$1_9/VDD dummy_1/ZN 0.010249f
C106 inv$1_6/I inv$1_6/ZN 0.031424f
C107 inv$1_6/I inv$1_9/VDD 0.00333f
C108 inv$1_9/VNW inv$1_9/I 0.010403f
C109 inv$1_9/VNW inv$1_7/I 0.010403f
C110 inv$1_3/ZN inv$1_9/VSS 0.003829f
C111 inv$1_5/I inv$1_9/VNW 0.010403f
C112 inv$1_1/I inv$1_1/ZN 0.031424f
C113 inv$1_9/VNW inv$1_2/I 0.011789f
C114 inv$1_2/ZN dummy_1/ZN 0.022956f
C115 inv$1_4/ZN inv$1_5/ZN 0.161793f
C116 inv$1_0/ZN inv$1_9/VDD 0.107658f
C117 inv$1_9/VNW inv$1_8/ZN 0.006066f
C118 inv$1_4/I inv$1_1/I 0.084161f
C119 inv$1_9/VNW inv$1_6/ZN 0.006066f
C120 inv$1_3/ZN inv$1_1/I 0.002086f
C121 inv$1_9/VNW inv$1_10/ZN 0.006066f
C122 inv$1_9/VNW inv$1_9/VDD -0.157887f
C123 inv$1_0/ZN dummy_0/ZN 0.0229f
C124 inv$1_9/ZN inv$1_9/I 0.031424f
C125 inv$1_9/VSS inv$1_8/I 0.104553f
C126 inv$1_0/ZN inv$1_0/I 0.031424f
C127 inv$1_9/VSS inv$1_1/I 0.104553f
C128 inv$1_9/VNW inv$1_2/ZN 0.008692f
C129 inv$1_5/I inv$1_5/ZN 0.031424f
C130 inv$1_5/I inv$1_4/ZN 0.002086f
C131 inv$1_9/VNW inv$1_1/ZN 0.006066f
C132 inv$1_9/VSS inv$1_7/ZN 0.003829f
C133 dummy_1/ZN VSUBS 0.095951f
C134 dummy_1/I VSUBS 0.604559f
C135 dummy_0/ZN VSUBS 0.095951f
C136 dummy_0/I VSUBS 0.604559f
C137 inv$1_9/ZN VSUBS 0.260352f
C138 inv$1_9/I VSUBS 0.670517f
C139 inv$1_8/ZN VSUBS 0.260352f
C140 inv$1_8/I VSUBS 0.670517f
C141 inv$1_7/ZN VSUBS 0.260352f
C142 inv$1_7/I VSUBS 0.670517f
C143 inv$1_6/ZN VSUBS 0.260352f
C144 inv$1_6/I VSUBS 0.670517f
C145 inv$1_5/ZN VSUBS 0.260352f
C146 inv$1_5/I VSUBS 0.670517f
C147 inv$1_4/ZN VSUBS 0.260352f
C148 inv$1_4/I VSUBS 0.670517f
C149 inv$1_3/ZN VSUBS 0.260352f
C150 inv$1_3/I VSUBS 0.670517f
C151 inv$1_9/VSS VSUBS 2.848055f
C152 inv$1_2/ZN VSUBS 0.398879f
C153 inv$1_9/VDD VSUBS 2.113035f
C154 inv$1_2/I VSUBS 0.741957f
C155 inv$1_9/VNW VSUBS 14.066851f
C156 inv$1_1/ZN VSUBS 0.260352f
C157 inv$1_1/I VSUBS 0.670517f
C158 inv$1_0/ZN VSUBS 0.398674f
C159 inv$1_0/I VSUBS 0.735921f
C160 inv$1_10/ZN VSUBS 0.260352f
C161 inv$1_10/I VSUBS 0.670517f
.ends

.subckt dacp ctl0 in dum ctl2 ctl1 ctl3 ctl4 ctl5 ctl6 ctl7 ctl8 ctl9 out ndum n1
+ n2 n3 n4 n5 n6 n7 n8 n9 sample bootstrapped_sw_0/vbsl bootstrapped_sw_0/vbsh n0
+ vdd vss
Xbootstrapped_sw_0 in vdd vss sample bootstrapped_sw_0/enb out bootstrapped_sw_0/vs
+ bootstrapped_sw_0/vg bootstrapped_sw_0/vbsh bootstrapped_sw_0/vbsl bootstrapped_sw
Xinv_renketu_0 inv_renketu_0/dummy_1/I ctl7 ctl2 ctl1 inv_renketu_0/dummy_0/ZN ctl4
+ inv_renketu_0/dummy_0/I ctl6 n8 n5 ndum inv_renketu_0/inv$1_9/VNW dum n3 ctl8 ctl0
+ ctl9 n6 n2 n1 ctl3 n7 inv_renketu_0/inv$1_9/VSS inv_renketu_0/inv$1_9/VDD n9 vss
+ ctl5 n0 n4 inv_renketu
C0 n0 inv_renketu_0/inv$1_9/VDD 0.008798f
C1 n9 n1 0.349226f
C2 n6 inv_renketu_0/inv$1_9/VDD 0.001148f
C3 inv_renketu_0/inv$1_9/VNW n0 0.002542f
C4 inv_renketu_0/inv$1_9/VDD ndum 0.001148f
C5 n7 n2 0.485327f
C6 bootstrapped_sw_0/vbsh out 0.137967f
C7 n5 n2 0.208084f
C8 inv_renketu_0/inv$1_9/VSS ctl0 0.002242f
C9 n9 n0 0.184985f
C10 n8 n4 2.84323f
C11 n9 n6 14.716789f
C12 n3 n2 22.840685f
C13 n7 n5 3.36878f
C14 sample inv_renketu_0/dummy_0/I 0.008276f
C15 inv_renketu_0/inv$1_9/VSS ctl1 0.002242f
C16 n9 ndum 0.127951f
C17 n2 out 6.640605f
C18 n3 n7 0.891504f
C19 n2 n1 16.604633f
C20 n3 n5 0.346757f
C21 n8 inv_renketu_0/inv$1_9/VDD 0.001148f
C22 ctl3 inv_renketu_0/inv$1_9/VSS 0.002242f
C23 n7 out 0.210031p
C24 n5 out 52.565514f
C25 n7 n1 0.212006f
C26 sample inv_renketu_0/inv$1_9/VSS 0.011446f
C27 n5 n1 0.141538f
C28 inv_renketu_0/inv$1_9/VSS ctl5 0.002242f
C29 n4 inv_renketu_0/inv$1_9/VDD 0.001148f
C30 sample ndum 0.046157f
C31 n3 out 13.201303f
C32 n2 n0 0.099287f
C33 ctl7 ctl8 0.076437f
C34 ctl6 ctl5 0.076437f
C35 n3 n1 0.144232f
C36 n6 n2 0.207962f
C37 n9 n8 87.102684f
C38 ctl1 ctl2 0.076437f
C39 n7 n0 0.06073f
C40 n1 out 3.367623f
C41 n5 n0 0.025424f
C42 n2 ndum 0.041162f
C43 n6 n7 34.326103f
C44 n6 n5 28.589401f
C45 ctl0 ctl9 0.076437f
C46 n9 n4 3.740573f
C47 ctl3 ctl2 0.076437f
C48 ctl3 ctl4 0.076437f
C49 n3 n0 0.051666f
C50 n7 ndum 0.06073f
C51 n5 ndum 0.025424f
C52 n3 n6 0.336612f
C53 inv_renketu_0/inv$1_9/VSS ctl7 0.002242f
C54 ctl5 ctl4 0.076437f
C55 out n0 1.745294f
C56 ctl6 ctl7 0.076437f
C57 n1 n0 8.476099f
C58 ctl1 dum 0.076437f
C59 n6 out 0.105055p
C60 n3 ndum 0.025424f
C61 n9 inv_renketu_0/inv$1_9/VDD 0.001148f
C62 n6 n1 0.141395f
C63 inv_renketu_0/inv$1_9/VSS ctl8 0.002242f
C64 n2 n8 0.770199f
C65 out ndum 1.640173f
C66 n1 ndum 8.161697f
C67 sample dum 0.00183f
C68 n7 n8 50.178104f
C69 n5 n8 5.60732f
C70 n2 n4 0.213181f
C71 n6 n0 0.025424f
C72 sample inv_renketu_0/inv$1_9/VDD 0.013129f
C73 inv_renketu_0/dummy_1/I n0 0.001307f
C74 n3 n8 1.46111f
C75 n7 n4 1.70387f
C76 n5 n4 27.491999f
C77 n6 ndum 0.025424f
C78 ctl6 inv_renketu_0/inv$1_9/VSS 0.002242f
C79 sample inv_renketu_0/inv$1_9/VNW 0.008949f
C80 n8 out 0.420151p
C81 n2 inv_renketu_0/inv$1_9/VDD 0.001148f
C82 n1 n8 0.285054f
C83 n3 n4 25.8929f
C84 n7 inv_renketu_0/inv$1_9/VDD 0.001148f
C85 out n4 26.32268f
C86 bootstrapped_sw_0/vbsl out 0.061234f
C87 n5 inv_renketu_0/inv$1_9/VDD 0.001148f
C88 n1 n4 0.141659f
C89 ctl9 ctl8 0.076437f
C90 n8 n0 0.097254f
C91 n9 n2 0.996653f
C92 n3 inv_renketu_0/inv$1_9/VDD 0.001148f
C93 n6 n8 11.2161f
C94 inv_renketu_0/inv$1_9/VSS ctl2 0.002242f
C95 inv_renketu_0/inv$1_9/VSS ctl4 0.002242f
C96 out inv_renketu_0/inv$1_9/VDD 0.007958f
C97 n9 n7 29.516087f
C98 n9 n5 7.399346f
C99 n1 inv_renketu_0/inv$1_9/VDD 0.001148f
C100 n8 ndum 0.097254f
C101 n0 n4 0.040502f
C102 sample inv_renketu_0/dummy_0/ZN 0.007127f
C103 n6 n4 0.614078f
C104 n3 n9 1.911224f
C105 inv_renketu_0/inv$1_9/VNW out 0.003912f
C106 inv_renketu_0/inv$1_9/VSS ctl9 0.002242f
C107 n4 ndum 0.025424f
C108 inv_renketu_0/inv$1_9/VSS dum 0.002242f
C109 n9 out 0.846163p
C110 inv_renketu_0/dummy_1/ZN vss 0.095951f
C111 inv_renketu_0/dummy_1/I vss 0.604559f
C112 inv_renketu_0/dummy_0/ZN vss 0.095951f
C113 inv_renketu_0/dummy_0/I vss 0.604559f
C114 ctl8 vss 0.863789f
C115 ctl7 vss 0.863789f
C116 ctl6 vss 0.863789f
C117 ctl5 vss 0.863789f
C118 ctl4 vss 0.863789f
C119 ctl3 vss 0.863789f
C120 ctl1 vss 0.863789f
C121 inv_renketu_0/inv$1_9/VSS vss 2.848055f
C122 inv_renketu_0/inv$1_9/VDD vss 2.113035f
C123 ctl0 vss 1.029175f
C124 inv_renketu_0/inv$1_9/VNW vss 14.066851f
C125 ctl2 vss 0.863789f
C126 ndum vss 13.878879f
C127 dum vss 1.023139f
C128 ctl9 vss 0.863789f
C129 n4 vss 39.311863f
C130 n5 vss 47.33512f
C131 n9 vss 14.292219f
C132 out vss -0.683569p
C133 n8 vss 39.909065f
C134 n7 vss 56.191708f
C135 n6 vss 52.976902f
C136 n0 vss 16.631123f
C137 n2 vss 30.111814f
C138 n1 vss 17.119806f
C139 n3 vss 33.594227f
C140 bootstrapped_sw_0/vs vss 0.065021f
C141 bootstrapped_sw_0/enb vss 1.523612f
C142 vdd vss 3.098478f
C143 sample vss 20.462025f
C144 bootstrapped_sw_0/XM4_0/w_n2712_234# vss 1.968192f
C145 bootstrapped_sw_0/vbsh vss 7.079245f
C146 bootstrapped_sw_0/vbsl vss 8.446682f
C147 in vss 0.297821f
C148 bootstrapped_sw_0/vg vss 1.1621f
.ends

.subckt inv$1$1 VSS ZN I VDD VNW VPW
X0 VDD I ZN VNW pfet_06v0 ad=1.2078p pd=4.42u as=0.4575p ps=1.97u w=1.22u l=0.5u
X1 ZN I VSS VPW nfet_06v0 ad=0.2255p pd=1.37u as=0.5084p ps=2.88u w=0.82u l=0.6u
X2 VSS I ZN VPW nfet_06v0 ad=0.8118p pd=3.62u as=0.2255p ps=1.37u w=0.82u l=0.6u
X3 ZN I VDD VNW pfet_06v0 ad=0.4575p pd=1.97u as=0.7564p ps=3.68u w=1.22u l=0.5u
C0 ZN I 0.58604f
C1 VNW VSS 0.006277f
C2 VNW ZN 0.023676f
C3 ZN VSS 0.180794f
C4 I VDD 0.074838f
C5 VNW VDD 0.082022f
C6 VSS VDD 0.029045f
C7 VNW I 0.285482f
C8 I VSS 0.091531f
C9 ZN VDD 0.271625f
C10 VSS VPW 0.296769f
C11 ZN VPW 0.099188f
C12 VDD VPW 0.238483f
C13 I VPW 0.610668f
C14 VNW VPW 1.31158f
.ends

.subckt dummy$1 VSS ZN I VDD VNW VPW
X0 VSS I ZN VPW nfet_06v0 ad=0.8118p pd=3.62u as=0.2255p ps=1.37u w=0.82u l=0.6u
X1 ZN I VSS VPW nfet_06v0 ad=0.2255p pd=1.37u as=0.5084p ps=2.88u w=0.82u l=0.6u
X2 VDD I ZN VNW pfet_06v0 ad=1.2078p pd=4.42u as=0.4575p ps=1.97u w=1.22u l=0.5u
X3 ZN I VDD VNW pfet_06v0 ad=0.4575p pd=1.97u as=0.7564p ps=3.68u w=1.22u l=0.5u
C0 ZN I 0.58604f
C1 VNW VSS 0.011638f
C2 VNW ZN 0.026913f
C3 ZN VSS 0.180794f
C4 I VDD 0.075475f
C5 VNW VDD 0.108083f
C6 VSS VDD 0.035859f
C7 VNW I 0.291591f
C8 I VSS 0.092168f
C9 ZN VDD 0.271625f
C10 VSS VPW 0.337898f
C11 ZN VPW 0.095951f
C12 VDD VPW 0.258911f
C13 I VPW 0.604559f
C14 VNW VPW 1.53535f
.ends

.subckt inv_renketu$1 inv$1$1_7/I inv$1$1_6/ZN inv$1$1_9/ZN inv$1$1_0/I dummy$1_0/I
+ inv$1$1_10/I inv$1$1_0/ZN inv$1$1_4/I inv$1$1_6/I inv$1$1_8/ZN inv$1$1_5/ZN inv$1$1_8/I
+ inv$1$1_2/I dummy$1_0/ZN inv$1$1_9/VSS inv$1$1_9/VDD inv$1$1_2/ZN inv$1$1_1/I inv$1$1_9/I
+ inv$1$1_7/ZN inv$1$1_3/ZN inv$1$1_3/I inv$1$1_4/ZN inv$1$1_1/ZN dummy$1_1/I inv$1$1_9/VNW
+ inv$1$1_5/I inv$1$1_10/ZN VSUBS
Xinv$1$1_0 inv$1$1_9/VSS inv$1$1_0/ZN inv$1$1_0/I inv$1$1_9/VDD inv$1$1_9/VNW VSUBS
+ inv$1$1
Xinv$1$1_1 inv$1$1_9/VSS inv$1$1_1/ZN inv$1$1_1/I inv$1$1_9/VDD inv$1$1_9/VNW VSUBS
+ inv$1$1
Xinv$1$1_2 inv$1$1_9/VSS inv$1$1_2/ZN inv$1$1_2/I inv$1$1_9/VDD inv$1$1_9/VNW VSUBS
+ inv$1$1
Xinv$1$1_3 inv$1$1_9/VSS inv$1$1_3/ZN inv$1$1_3/I inv$1$1_9/VDD inv$1$1_9/VNW VSUBS
+ inv$1$1
Xinv$1$1_4 inv$1$1_9/VSS inv$1$1_4/ZN inv$1$1_4/I inv$1$1_9/VDD inv$1$1_9/VNW VSUBS
+ inv$1$1
Xinv$1$1_5 inv$1$1_9/VSS inv$1$1_5/ZN inv$1$1_5/I inv$1$1_9/VDD inv$1$1_9/VNW VSUBS
+ inv$1$1
Xinv$1$1_6 inv$1$1_9/VSS inv$1$1_6/ZN inv$1$1_6/I inv$1$1_9/VDD inv$1$1_9/VNW VSUBS
+ inv$1$1
Xinv$1$1_7 inv$1$1_9/VSS inv$1$1_7/ZN inv$1$1_7/I inv$1$1_9/VDD inv$1$1_9/VNW VSUBS
+ inv$1$1
Xinv$1$1_8 inv$1$1_9/VSS inv$1$1_8/ZN inv$1$1_8/I inv$1$1_9/VDD inv$1$1_9/VNW VSUBS
+ inv$1$1
Xdummy$1_0 inv$1$1_9/VSS dummy$1_0/ZN dummy$1_0/I inv$1$1_9/VDD inv$1$1_9/VNW VSUBS
+ dummy$1
Xinv$1$1_9 inv$1$1_9/VSS inv$1$1_9/ZN inv$1$1_9/I inv$1$1_9/VDD inv$1$1_9/VNW VSUBS
+ inv$1$1
Xdummy$1_1 inv$1$1_9/VSS dummy$1_1/ZN dummy$1_1/I inv$1$1_9/VDD inv$1$1_9/VNW VSUBS
+ dummy$1
Xinv$1$1_10 inv$1$1_9/VSS inv$1$1_10/ZN inv$1$1_10/I inv$1$1_9/VDD inv$1$1_9/VNW VSUBS
+ inv$1$1
C0 inv$1$1_4/ZN inv$1$1_9/VSS 0.003829f
C1 inv$1$1_1/I inv$1$1_1/ZN 0.031424f
C2 inv$1$1_9/VNW inv$1$1_6/I 0.010403f
C3 inv$1$1_9/VNW inv$1$1_7/ZN 0.006066f