* NGSPICE file created from sarlogic.ext - technology: gf180mcuD

.subckt gf180mcu_fd_sc_mcu7t5v0__fillcap_8 VDD VSS VNW VPW a_36_472# a_572_375# a_124_375#
+ a_484_472#
X0 VDD a_572_375# a_484_472# VNW pfet_06v0 ad=0.5368p pd=3.32u as=0.5368p ps=3.32u w=1.22u l=1u
X1 a_572_375# a_484_472# VSS VPW nfet_06v0 ad=0.3608p pd=2.52u as=0.3608p ps=2.52u w=0.82u l=1u
X2 a_124_375# a_36_472# VSS VPW nfet_06v0 ad=0.3608p pd=2.52u as=0.3608p ps=2.52u w=0.82u l=1u
X3 VDD a_124_375# a_36_472# VNW pfet_06v0 ad=0.5368p pd=3.32u as=0.5368p ps=3.32u w=1.22u l=1u
C0 a_36_472# a_484_472# 0.013276f
C1 a_124_375# VNW 0.180172f
C2 a_572_375# VDD 0.129266f
C3 VSS a_484_472# 0.148682f
C4 a_484_472# VNW 0.024396f
C5 a_36_472# VDD 0.093681f
C6 a_572_375# VSS 0.082563f
C7 VDD VSS 0.013184f
C8 a_124_375# a_484_472# 0.086742f
C9 a_572_375# VNW 0.18122f
C10 a_36_472# VSS 0.151218f
C11 VDD VNW 0.11314f
C12 a_124_375# a_572_375# 0.012222f
C13 a_36_472# VNW 0.025611f
C14 a_124_375# VDD 0.12673f
C15 VSS VNW 0.008822f
C16 a_124_375# a_36_472# 0.285629f
C17 a_572_375# a_484_472# 0.285629f
C18 a_124_375# VSS 0.136476f
C19 VDD a_484_472# 0.179463f
C20 VSS VPW 0.360066f
C21 VDD VPW 0.286281f
C22 VNW VPW 1.65967f
C23 a_484_472# VPW 0.345058f
C24 a_36_472# VPW 0.404746f
C25 a_572_375# VPW 0.232991f
C26 a_124_375# VPW 0.185089f
.ends

.subckt gf180mcu_fd_sc_mcu7t5v0__antenna VSS I VDD VNW VPW
D0 VPW I diode_nd2ps_06v0 pj=1.86u area=0.2052p
D1 I VNW diode_pd2nw_06v0 pj=1.86u area=0.2052p
C0 VNW I 0.027206f
C1 I VDD 0.017439f
C2 I VSS 0.031625f
C3 VNW VDD 0.048519f
C4 VNW VSS 0.007461f
C5 VDD VSS 0.009725f
C6 VSS VPW 0.12617f
C7 VDD VPW 0.087026f
C8 I VPW 0.139667f
C9 VNW VPW 0.615384f
.ends

.subckt gf180mcu_fd_sc_mcu7t5v0__nor2_1 VDD VSS ZN A1 A2 VNW VPW a_224_472#
X0 ZN A1 a_224_472# VNW pfet_06v0 ad=0.5368p pd=3.32u as=0.4087p ps=1.89u w=1.22u l=0.5u
X1 VSS A1 ZN VPW nfet_06v0 ad=0.2486p pd=2.01u as=0.1469p ps=1.085u w=0.565u l=0.6u
X2 a_224_472# A2 VDD VNW pfet_06v0 ad=0.4087p pd=1.89u as=0.5368p ps=3.32u w=1.22u l=0.5u
X3 ZN A2 VSS VPW nfet_06v0 ad=0.1469p pd=1.085u as=0.2486p ps=2.01u w=0.565u l=0.6u
C0 VNW A2 0.128798f
C1 a_224_472# VDD 0.013964f
C2 ZN VNW 0.019783f
C3 VDD VSS 0.023219f
C4 a_224_472# A2 0.008979f
C5 VNW A1 0.136915f
C6 a_224_472# ZN 0.023693f
C7 VDD A2 0.255318f
C8 VDD ZN 0.117921f
C9 VSS A2 0.043352f
C10 ZN VSS 0.08687f
C11 VDD A1 0.028041f
C12 ZN A2 0.378409f
C13 VSS A1 0.168633f
C14 A2 A1 0.037814f
C15 ZN A1 0.579732f
C16 VDD VNW 0.093678f
C17 VSS VNW 0.010571f
C18 VSS VPW 0.331491f
C19 ZN VPW 0.058886f
C20 VDD VPW 0.218051f
C21 A1 VPW 0.331856f
C22 A2 VPW 0.334514f
C23 VNW VPW 1.31158f
.ends

.subckt gf180mcu_fd_sc_mcu7t5v0__dffrnq_1 D Q RN VSS CLK VDD VNW VPW a_2665_112# a_448_472#
+ a_796_472# a_36_151# a_1204_472# a_3041_156# a_1000_472# a_1308_423# a_1456_156#
+ a_1288_156# a_2248_156# a_2560_156#
X0 VSS CLK a_36_151# VPW nfet_06v0 ad=0.1053p pd=0.925u as=0.1782p ps=1.69u w=0.405u l=0.6u
X1 VSS RN a_1456_156# VPW nfet_06v0 ad=0.2016p pd=1.48u as=43.199997f ps=0.6u w=0.36u l=0.6u
X2 Q a_2665_112# VDD VNW pfet_06v0 ad=0.5346p pd=3.31u as=0.5346p ps=3.31u w=1.215u l=0.5u
X3 a_796_472# D VSS VPW nfet_06v0 ad=93.59999f pd=0.88u as=0.1584p ps=1.6u w=0.36u l=0.6u
X4 VSS a_2665_112# a_2560_156# VPW nfet_06v0 ad=0.1224p pd=1.04u as=94.5f ps=0.885u w=0.36u l=0.6u
X5 a_2665_112# a_2248_156# a_3041_156# VPW nfet_06v0 ad=0.176p pd=1.68u as=0.134p ps=1.1u w=0.4u l=0.6u
X6 a_1000_472# a_448_472# a_796_472# VNW pfet_06v0 ad=0.2028p pd=1.3u as=0.2028p ps=1.3u w=0.78u l=0.5u
X7 a_2248_156# a_36_151# a_1308_423# VNW pfet_06v0 ad=0.25375p pd=1.51u as=0.2424p ps=1.465u w=0.505u l=0.5u
X8 a_2248_156# a_448_472# a_1308_423# VPW nfet_06v0 ad=0.2007p pd=1.475u as=0.2007p ps=1.475u w=0.36u l=0.6u
X9 VDD CLK a_36_151# VNW pfet_06v0 ad=0.2249p pd=1.385u as=0.3806p ps=2.61u w=0.865u l=0.5u
X10 a_1456_156# a_1308_423# a_1288_156# VPW nfet_06v0 ad=43.199997f pd=0.6u as=43.199997f ps=0.6u w=0.36u l=0.6u
X11 a_1308_423# a_1000_472# VSS VPW nfet_06v0 ad=0.2007p pd=1.475u as=0.2016p ps=1.48u w=0.36u l=0.6u
X12 Q a_2665_112# VSS VPW nfet_06v0 ad=0.3586p pd=2.51u as=0.3586p ps=2.51u w=0.815u l=0.6u
X13 a_448_472# a_36_151# VDD VNW pfet_06v0 ad=0.3806p pd=2.61u as=0.2249p ps=1.385u w=0.865u l=0.5u
X14 a_1204_472# a_36_151# a_1000_472# VNW pfet_06v0 ad=0.2028p pd=1.3u as=0.2028p ps=1.3u w=0.78u l=0.5u
X15 a_1204_472# RN VDD VNW pfet_06v0 ad=0.3432p pd=2.44u as=0.45p ps=2.02u w=0.78u l=0.5u
X16 a_2665_112# RN VDD VNW pfet_06v0 ad=0.26p pd=1.52u as=0.29465p ps=1.74u w=1u l=0.5u
X17 a_2560_156# a_36_151# a_2248_156# VPW nfet_06v0 ad=94.5f pd=0.885u as=0.2007p ps=1.475u w=0.36u l=0.6u
X18 VDD a_2248_156# a_2665_112# VNW pfet_06v0 ad=0.44p pd=2.88u as=0.26p ps=1.52u w=1u l=0.5u
X19 a_1288_156# a_448_472# a_1000_472# VPW nfet_06v0 ad=43.199997f pd=0.6u as=93.59999f ps=0.88u w=0.36u l=0.6u
X20 VDD a_1308_423# a_1204_472# VNW pfet_06v0 ad=0.45p pd=2.02u as=0.2028p ps=1.3u w=0.78u l=0.5u
X21 a_2560_156# a_448_472# a_2248_156# VNW pfet_06v0 ad=0.1313p pd=1.025u as=0.25375p ps=1.51u w=0.505u l=0.5u
X22 a_448_472# a_36_151# VSS VPW nfet_06v0 ad=0.1782p pd=1.69u as=0.1053p ps=0.925u w=0.405u l=0.6u
X23 a_3041_156# RN VSS VPW nfet_06v0 ad=0.134p pd=1.1u as=0.1224p ps=1.04u w=0.36u l=0.6u
X24 VDD a_2665_112# a_2560_156# VNW pfet_06v0 ad=0.29465p pd=1.74u as=0.1313p ps=1.025u w=0.505u l=0.5u
X25 a_1308_423# a_1000_472# VDD VNW pfet_06v0 ad=0.2424p pd=1.465u as=0.2222p ps=1.89u w=0.505u l=0.5u
X26 a_1000_472# a_36_151# a_796_472# VPW nfet_06v0 ad=93.59999f pd=0.88u as=93.59999f ps=0.88u w=0.36u l=0.6u
X27 a_796_472# D VDD VNW pfet_06v0 ad=0.2028p pd=1.3u as=0.3432p ps=2.44u w=0.78u l=0.5u
C0 a_2248_156# RN 0.094336f
C1 a_36_151# a_448_472# 0.536965f
C2 a_2665_112# VNW 0.354715f
C3 a_2560_156# VDD 0.00217f
C4 a_36_151# RN 0.080102f
C5 a_2665_112# VSS 0.184997f
C6 a_448_472# CLK 0.002757f
C7 a_448_472# a_1308_423# 0.882105f
C8 a_1204_472# a_448_472# 0.008996f
C9 a_1308_423# RN 0.079294f
C10 a_796_472# D 0.082858f
C11 VNW VSS 0.010602f
C12 VDD D 0.009367f
C13 a_1000_472# VNW 0.241357f
C14 a_1000_472# VSS 0.04356f
C15 a_1204_472# RN 0.021039f
C16 a_2665_112# a_2248_156# 0.633318f
C17 a_2248_156# VNW 0.212431f
C18 a_2665_112# a_36_151# 0.019043f
C19 a_2248_156# VSS 0.030473f
C20 a_1000_472# a_2248_156# 0.001232f
C21 a_36_151# VNW 1.28833f
C22 a_448_472# a_1456_156# 0.00227f
C23 a_36_151# VSS 0.291264f
C24 a_2665_112# Q 0.109436f
C25 a_448_472# a_796_472# 0.401636f
C26 a_448_472# VDD 0.456269f
C27 a_36_151# a_1000_472# 0.08126f
C28 a_1308_423# VNW 0.149014f
C29 VNW CLK 0.137037f
C30 a_1308_423# VSS 0.013866f
C31 VNW Q 0.034443f
C32 CLK VSS 0.021952f
C33 VDD RN 0.034984f
C34 a_1204_472# VNW 0.016269f
C35 a_1000_472# a_1308_423# 0.934191f
C36 VSS Q 0.113401f
C37 a_36_151# a_2248_156# 0.042802f
C38 a_1000_472# a_1204_472# 0.66083f
C39 a_2248_156# a_1308_423# 0.056721f
C40 a_2560_156# a_448_472# 0.277491f
C41 a_2248_156# Q 0.014355f
C42 a_36_151# CLK 0.669598f
C43 a_36_151# a_1308_423# 0.05539f
C44 a_2560_156# RN 0.038779f
C45 a_2665_112# VDD 0.102046f
C46 a_448_472# D 0.328788f
C47 a_36_151# a_1204_472# 0.006996f
C48 a_796_472# VNW 0.010232f
C49 a_3041_156# RN 0.01068f
C50 VNW VDD 0.503557f
C51 a_1456_156# VSS 0.001901f
C52 a_796_472# VSS 0.05215f
C53 VDD VSS 0.01338f
C54 a_1000_472# VDD 0.119211f
C55 a_1204_472# a_1308_423# 0.026665f
C56 a_1000_472# a_796_472# 0.048436f
C57 a_2560_156# a_2665_112# 0.116059f
C58 a_2248_156# VDD 1.11667f
C59 a_1288_156# a_448_472# 0.002067f
C60 a_2560_156# VNW 0.020165f
C61 a_2665_112# a_3041_156# 0.001774f
C62 a_36_151# a_796_472# 0.011851f
C63 a_36_151# VDD 0.417088f
C64 a_2560_156# VSS 0.128503f
C65 a_448_472# RN 0.078731f
C66 a_1308_423# VDD 0.094185f
C67 CLK VDD 0.02303f
C68 VNW D 0.128231f
C69 VDD Q 0.149344f
C70 D VSS 0.064618f
C71 a_1204_472# VDD 0.282626f
C72 a_2560_156# a_2248_156# 0.119687f
C73 a_2560_156# a_36_151# 0.003674f
C74 a_2665_112# a_448_472# 0.020455f
C75 a_36_151# D 0.094113f
C76 a_1288_156# VSS 0.001702f
C77 a_2665_112# RN 0.336469f
C78 a_448_472# VNW 0.341284f
C79 a_448_472# VSS 1.20207f
C80 a_1000_472# a_448_472# 0.361958f
C81 VNW RN 0.329494f
C82 RN VSS 0.441968f
C83 a_1000_472# RN 0.0832f
C84 a_2248_156# a_448_472# 0.510371f
C85 Q VPW 0.114762f
C86 VSS VPW 1.26186f
C87 RN VPW 1.36673f
C88 D VPW 0.253406f
C89 VDD VPW 0.79945f
C90 CLK VPW 0.291241f
C91 VNW VPW 6.1377f
C92 a_2560_156# VPW 0.016968f
C93 a_2665_112# VPW 0.62251f
C94 a_2248_156# VPW 0.371662f
C95 a_1204_472# VPW 0.012971f
C96 a_1000_472# VPW 0.291735f
C97 a_796_472# VPW 0.023206f
C98 a_1308_423# VPW 0.279043f
C99 a_448_472# VPW 0.684413f
C100 a_36_151# VPW 1.43589f
.ends

.subckt gf180mcu_fd_sc_mcu7t5v0__oai22_1 A2 B1 B2 VDD VSS ZN A1 VNW VPW a_36_68# a_244_472#
+ a_692_472#
X0 ZN A1 a_36_68# VPW nfet_06v0 ad=0.2132p pd=1.34u as=0.2132p ps=1.34u w=0.82u l=0.6u
X1 VSS B2 a_36_68# VPW nfet_06v0 ad=0.2132p pd=1.34u as=0.3608p ps=2.52u w=0.82u l=0.6u
X2 a_244_472# B2 VDD VNW pfet_06v0 ad=0.3782p pd=1.84u as=0.6588p ps=3.52u w=1.22u l=0.5u
X3 a_692_472# A1 ZN VNW pfet_06v0 ad=0.3172p pd=1.74u as=0.3782p ps=1.84u w=1.22u l=0.5u
X4 VDD A2 a_692_472# VNW pfet_06v0 ad=0.5368p pd=3.32u as=0.3172p ps=1.74u w=1.22u l=0.5u
X5 a_36_68# A2 ZN VPW nfet_06v0 ad=0.3608p pd=2.52u as=0.2132p ps=1.34u w=0.82u l=0.6u
X6 a_36_68# B1 VSS VPW nfet_06v0 ad=0.2132p pd=1.34u as=0.2132p ps=1.34u w=0.82u l=0.6u
X7 ZN B1 a_244_472# VNW pfet_06v0 ad=0.3782p pd=1.84u as=0.3782p ps=1.84u w=1.22u l=0.5u
C0 VSS B2 0.025295f
C1 VSS A2 0.087422f
C2 a_244_472# B2 0.002003f
C3 VNW B1 0.125926f
C4 ZN VNW 0.010694f
C5 VSS B1 0.025138f
C6 VSS ZN 0.085273f
C7 A1 VNW 0.115376f
C8 VDD VNW 0.139306f
C9 a_244_472# B1 0.003598f
C10 a_36_68# VNW 0.040298f
C11 B2 B1 0.036483f
C12 A2 ZN 0.390894f
C13 VSS A1 0.084232f
C14 VSS VDD 0.011512f
C15 VSS a_36_68# 0.392965f
C16 VDD a_244_472# 0.00636f
C17 a_244_472# a_36_68# 0.027448f
C18 A2 A1 0.038725f
C19 a_36_68# B2 0.369561f
C20 VDD B2 0.246452f
C21 A2 a_36_68# 0.340509f
C22 A2 VDD 0.019572f
C23 ZN a_692_472# 0.011665f
C24 ZN B1 0.079f
C25 VDD a_692_472# 0.004194f
C26 A1 B1 0.163724f
C27 a_692_472# a_36_68# 0.015646f
C28 ZN A1 0.430191f
C29 a_36_68# B1 0.437534f
C30 VDD B1 0.014643f
C31 ZN a_36_68# 0.419486f
C32 ZN VDD 0.004634f
C33 VSS VNW 0.010714f
C34 A1 a_36_68# 0.160084f
C35 VDD A1 0.014671f
C36 VDD a_36_68# 0.787847f
C37 VNW B2 0.133721f
C38 A2 VNW 0.125671f
C39 VSS VPW 0.383233f
C40 ZN VPW 0.012598f
C41 VDD VPW 0.318857f
C42 A2 VPW 0.2826f
C43 A1 VPW 0.258579f
C44 B1 VPW 0.257485f
C45 B2 VPW 0.309037f
C46 VNW VPW 2.00777f
C47 a_36_68# VPW 0.150048f
.ends

.subckt gf180mcu_fd_sc_mcu7t5v0__aoi22_1 B1 B2 VDD VSS ZN A1 A2 VNW VPW a_49_472#
+ a_665_69# a_257_69#
X0 ZN B1 a_257_69# VPW nfet_06v0 ad=0.2119p pd=1.335u as=0.1304p ps=1.135u w=0.815u l=0.6u
X1 VDD B2 a_49_472# VNW pfet_06v0 ad=0.3159p pd=1.735u as=0.5346p ps=3.31u w=1.215u l=0.5u
X2 a_49_472# B1 VDD VNW pfet_06v0 ad=0.3159p pd=1.735u as=0.3159p ps=1.735u w=1.215u l=0.5u
X3 ZN A1 a_49_472# VNW pfet_06v0 ad=0.3159p pd=1.735u as=0.3159p ps=1.735u w=1.215u l=0.5u
X4 a_49_472# A2 ZN VNW pfet_06v0 ad=0.5346p pd=3.31u as=0.3159p ps=1.735u w=1.215u l=0.5u
X5 a_257_69# B2 VSS VPW nfet_06v0 ad=0.1304p pd=1.135u as=0.3586p ps=2.51u w=0.815u l=0.6u
X6 a_665_69# A1 ZN VPW nfet_06v0 ad=0.1304p pd=1.135u as=0.2119p ps=1.335u w=0.815u l=0.6u
X7 VSS A2 a_665_69# VPW nfet_06v0 ad=0.3586p pd=2.51u as=0.1304p ps=1.135u w=0.815u l=0.6u
C0 VSS a_665_69# 0.003829f
C1 B1 a_257_69# 0.003901f
C2 VDD ZN 0.004108f
C3 A2 A1 0.392541f
C4 a_665_69# A2 0.006702f
C5 ZN a_49_472# 0.239204f
C6 VNW ZN 0.017894f
C7 a_665_69# A1 0.002008f
C8 VSS VDD 0.00787f
C9 VSS a_49_472# 0.02154f
C10 VSS VNW 0.011011f
C11 B2 VDD 0.026097f
C12 B2 a_49_472# 0.151151f
C13 B2 VNW 0.129409f
C14 A2 VDD 0.013575f
C15 VDD A1 0.013859f
C16 A2 a_49_472# 0.075759f
C17 VNW A2 0.131727f
C18 A1 a_49_472# 0.021757f
C19 VSS a_257_69# 0.00576f
C20 VNW A1 0.10965f
C21 B2 a_257_69# 0.003563f
C22 B1 ZN 0.367665f
C23 B1 VSS 0.095385f
C24 VDD a_49_472# 0.887006f
C25 VNW VDD 0.112326f
C26 VNW a_49_472# 0.026629f
C27 B1 B2 0.18297f
C28 B1 A1 0.041046f
C29 VSS ZN 0.071892f
C30 B1 VDD 0.017923f
C31 B2 ZN 0.001886f
C32 B1 a_49_472# 0.069833f
C33 B1 VNW 0.109456f
C34 A2 ZN 0.102518f
C35 VSS B2 0.06757f
C36 ZN A1 0.447732f
C37 a_665_69# ZN 0.001059f
C38 VSS A2 0.150463f
C39 VSS A1 0.087393f
C40 VSS VPW 0.39457f
C41 ZN VPW 0.021794f
C42 VDD VPW 0.243433f
C43 A2 VPW 0.322629f
C44 A1 VPW 0.250967f
C45 B1 VPW 0.261124f
C46 B2 VPW 0.322244f
C47 VNW VPW 1.83372f
C48 a_49_472# VPW 0.054843f
.ends

.subckt gf180mcu_fd_sc_mcu7t5v0__buf_1 VSS Z I VDD VNW VPW a_36_160#
X0 Z a_36_160# VSS VPW nfet_06v0 ad=0.3608p pd=2.52u as=0.2344p ps=1.56u w=0.82u l=0.6u
X1 Z a_36_160# VDD VNW pfet_06v0 ad=0.5368p pd=3.32u as=0.35315p ps=1.96u w=1.22u l=0.5u
X2 VDD I a_36_160# VNW pfet_06v0 ad=0.35315p pd=1.96u as=0.2486p ps=2.01u w=0.565u l=0.5u
X3 VSS I a_36_160# VPW nfet_06v0 ad=0.2344p pd=1.56u as=0.1584p ps=1.6u w=0.36u l=0.6u
C0 a_36_160# I 0.545454f
C1 a_36_160# VNW 0.170864f
C2 I VNW 0.2276f
C3 VDD Z 0.128274f
C4 VSS VDD 0.009574f
C5 a_36_160# VDD 0.2736f
C6 I VDD 0.02612f
C7 VDD VNW 0.087464f
C8 VSS Z 0.146199f
C9 a_36_160# Z 0.281838f
C10 I Z 0.041707f
C11 VSS a_36_160# 0.074156f
C12 Z VNW 0.030347f
C13 VSS I 0.12329f
C14 VSS VNW 0.009324f
C15 VSS VPW 0.28275f
C16 Z VPW 0.10469f
C17 VDD VPW 0.178615f
C18 I VPW 0.323491f
C19 VNW VPW 1.31158f
C20 a_36_160# VPW 0.386641f
.ends

.subckt gf180mcu_fd_sc_mcu7t5v0__clkinv_1 VDD VSS I ZN VNW VPW
X0 ZN I VSS VPW nfet_06v0 ad=0.2112p pd=1.84u as=0.2112p ps=1.84u w=0.48u l=0.6u
X1 ZN I VDD VNW pfet_06v0 ad=0.5368p pd=3.32u as=0.5368p ps=3.32u w=1.22u l=0.5u
C0 VDD I 0.157124f
C1 ZN VSS 0.077008f
C2 VDD ZN 0.098026f
C3 ZN I 0.47009f
C4 VNW VSS 0.011085f
C5 VNW VDD 0.076212f
C6 VNW I 0.135368f
C7 VNW ZN 0.031181f
C8 VDD VSS 0.025441f
C9 VSS I 0.058937f
C10 VSS VPW 0.242183f
C11 ZN VPW 0.095505f
C12 VDD VPW 0.182097f
C13 I VPW 0.355642f
C14 VNW VPW 0.96348f
.ends

.subckt gf180mcu_fd_sc_mcu7t5v0__inv_1 VSS ZN I VDD VNW VPW
X0 ZN I VSS VPW nfet_06v0 ad=0.3608p pd=2.52u as=0.3608p ps=2.52u w=0.82u l=0.6u
X1 ZN I VDD VNW pfet_06v0 ad=0.5368p pd=3.32u as=0.5368p ps=3.32u w=1.22u l=0.5u
C0 ZN VSS 0.115297f
C1 VDD I 0.041847f
C2 VDD ZN 0.137375f
C3 ZN I 0.262199f
C4 VNW VSS 0.011339f
C5 VNW VDD 0.076257f
C6 VNW I 0.137757f
C7 VNW ZN 0.022202f
C8 VDD VSS 0.025626f
C9 VSS I 0.0533f
C10 VSS VPW 0.2316f
C11 ZN VPW 0.113404f
C12 VDD VPW 0.181139f
C13 I VPW 0.341982f
C14 VNW VPW 0.96348f
.ends

.subckt gf180mcu_fd_sc_mcu7t5v0__fillcap_4 VDD VSS VNW VPW a_36_472# a_124_375#
X0 a_124_375# a_36_472# VSS VPW nfet_06v0 ad=0.3608p pd=2.52u as=0.3608p ps=2.52u w=0.82u l=1u
X1 VDD a_124_375# a_36_472# VNW pfet_06v0 ad=0.5368p pd=3.32u as=0.5368p ps=3.32u w=1.22u l=1u
C0 a_124_375# VNW 0.179924f
C1 VDD VSS 0.006592f
C2 a_124_375# VDD 0.126034f
C3 VNW VDD 0.061035f
C4 a_36_472# VSS 0.150876f
C5 a_36_472# a_124_375# 0.285629f
C6 a_36_472# VNW 0.025989f
C7 a_36_472# VDD 0.093681f
C8 a_124_375# VSS 0.082879f
C9 VNW VSS 0.004411f
C10 VSS VPW 0.218985f
C11 VDD VPW 0.182777f
C12 VNW VPW 0.96348f
C13 a_36_472# VPW 0.417394f
C14 a_124_375# VPW 0.246306f
.ends

.subckt gf180mcu_fd_sc_mcu7t5v0__buf_8 Z I VDD VSS VNW VPW a_224_472#
X0 a_224_472# I VDD VNW pfet_06v0 ad=0.3782p pd=1.84u as=0.3782p ps=1.84u w=1.22u l=0.5u
X1 Z a_224_472# VDD VNW pfet_06v0 ad=0.3782p pd=1.84u as=0.3782p ps=1.84u w=1.22u l=0.5u
X2 a_224_472# I VSS VPW nfet_06v0 ad=0.2132p pd=1.34u as=0.2132p ps=1.34u w=0.82u l=0.6u
X3 VSS a_224_472# Z VPW nfet_06v0 ad=0.3608p pd=2.52u as=0.2132p ps=1.34u w=0.82u l=0.6u
X4 VDD a_224_472# Z VNW pfet_06v0 ad=0.3782p pd=1.84u as=0.3782p ps=1.84u w=1.22u l=0.5u
X5 Z a_224_472# VDD VNW pfet_06v0 ad=0.3782p pd=1.84u as=0.3782p ps=1.84u w=1.22u l=0.5u
X6 a_224_472# I VSS VPW nfet_06v0 ad=0.2132p pd=1.34u as=0.3608p ps=2.52u w=0.82u l=0.6u
X7 Z a_224_472# VSS VPW nfet_06v0 ad=0.2132p pd=1.34u as=0.2132p ps=1.34u w=0.82u l=0.6u
X8 VDD a_224_472# Z VNW pfet_06v0 ad=0.3782p pd=1.84u as=0.3782p ps=1.84u w=1.22u l=0.5u
X9 Z a_224_472# VSS VPW nfet_06v0 ad=0.2132p pd=1.34u as=0.2132p ps=1.34u w=0.82u l=0.6u
X10 Z a_224_472# VSS VPW nfet_06v0 ad=0.2132p pd=1.34u as=0.2132p ps=1.34u w=0.82u l=0.6u
X11 VDD I a_224_472# VNW pfet_06v0 ad=0.3782p pd=1.84u as=0.3782p ps=1.84u w=1.22u l=0.5u
X12 VDD a_224_472# Z VNW pfet_06v0 ad=0.3782p pd=1.84u as=0.3782p ps=1.84u w=1.22u l=0.5u
X13 Z a_224_472# VDD VNW pfet_06v0 ad=0.3782p pd=1.84u as=0.3782p ps=1.84u w=1.22u l=0.5u
X14 VSS a_224_472# Z VPW nfet_06v0 ad=0.2132p pd=1.34u as=0.2132p ps=1.34u w=0.82u l=0.6u
X15 VDD I a_224_472# VNW pfet_06v0 ad=0.3782p pd=1.84u as=0.3782p ps=1.84u w=1.22u l=0.5u
X16 VSS a_224_472# Z VPW nfet_06v0 ad=0.2132p pd=1.34u as=0.2132p ps=1.34u w=0.82u l=0.6u
X17 VDD a_224_472# Z VNW pfet_06v0 ad=0.5368p pd=3.32u as=0.3782p ps=1.84u w=1.22u l=0.5u
X18 VSS a_224_472# Z VPW nfet_06v0 ad=0.2132p pd=1.34u as=0.2132p ps=1.34u w=0.82u l=0.6u
X19 Z a_224_472# VDD VNW pfet_06v0 ad=0.3782p pd=1.84u as=0.3782p ps=1.84u w=1.22u l=0.5u
X20 VSS I a_224_472# VPW nfet_06v0 ad=0.2132p pd=1.34u as=0.2132p ps=1.34u w=0.82u l=0.6u
X21 a_224_472# I VDD VNW pfet_06v0 ad=0.3782p pd=1.84u as=0.5368p ps=3.32u w=1.22u l=0.5u
X22 VSS I a_224_472# VPW nfet_06v0 ad=0.2132p pd=1.34u as=0.2132p ps=1.34u w=0.82u l=0.6u
X23 Z a_224_472# VSS VPW nfet_06v0 ad=0.2132p pd=1.34u as=0.2132p ps=1.34u w=0.82u l=0.6u
C0 a_224_472# I 0.796069f
C1 a_224_472# VNW 1.14633f
C2 VDD Z 0.819024f
C3 I VNW 0.55539f
C4 VSS VDD 0.031131f
C5 a_224_472# VDD 0.74621f
C6 I VDD 0.1311f
C7 VDD VNW 0.305516f
C8 VSS Z 0.70427f
C9 a_224_472# Z 2.29481f
C10 I Z 0.001907f
C11 VSS a_224_472# 0.659695f
C12 Z VNW 0.038011f
C13 VSS I 0.158668f
C14 VSS VNW 0.01282f
C15 VSS VPW 0.910368f
C16 Z VPW 0.18914f
C17 VDD VPW 0.724491f
C18 I VPW 1.16773f
C19 VNW VPW 4.79254f
C20 a_224_472# VPW 2.38465f
.ends

.subckt gf180mcu_fd_sc_mcu7t5v0__aoi21_1 B VDD VSS ZN A1 A2 VNW VPW a_36_472# a_244_68#
X0 a_244_68# A2 VSS VPW nfet_06v0 ad=0.1312p pd=1.14u as=0.3608p ps=2.52u w=0.82u l=0.6u
X1 ZN A1 a_244_68# VPW nfet_06v0 ad=0.2569p pd=1.56u as=0.1312p ps=1.14u w=0.82u l=0.6u
X2 VDD B a_36_472# VNW pfet_06v0 ad=0.5346p pd=3.31u as=0.44955p ps=1.955u w=1.215u l=0.5u
X3 ZN A2 a_36_472# VNW pfet_06v0 ad=0.3159p pd=1.735u as=0.5346p ps=3.31u w=1.215u l=0.5u
X4 a_36_472# A1 ZN VNW pfet_06v0 ad=0.44955p pd=1.955u as=0.3159p ps=1.735u w=1.215u l=0.5u
X5 VSS B ZN VPW nfet_06v0 ad=0.2244p pd=1.9u as=0.2569p ps=1.56u w=0.51u l=0.6u
C0 B VDD 0.071777f
C1 a_36_472# VNW 0.013943f
C2 a_36_472# VDD 0.581285f
C3 A2 A1 0.047589f
C4 VDD VNW 0.11216f
C5 ZN A1 0.245346f
C6 B ZN 0.00761f
C7 a_36_472# A2 0.10395f
C8 a_244_68# VSS 0.00255f
C9 a_36_472# ZN 0.088503f
C10 VNW A2 0.128282f
C11 ZN VNW 0.014655f
C12 VDD A2 0.015143f
C13 VDD ZN 0.003129f
C14 VSS A1 0.021732f
C15 ZN A2 0.248411f
C16 B VSS 0.080416f
C17 a_36_472# VSS 0.004325f
C18 VNW VSS 0.009145f
C19 VDD VSS 0.01275f
C20 B A1 0.157699f
C21 a_36_472# A1 0.104556f
C22 a_244_68# ZN 0.008784f
C23 A2 VSS 0.069479f
C24 VNW A1 0.122087f
C25 B a_36_472# 0.01027f
C26 VDD A1 0.0167f
C27 ZN VSS 0.304078f
C28 B VNW 0.137038f
C29 VSS VPW 0.361309f
C30 VDD VPW 0.259458f
C31 ZN VPW 0.040013f
C32 B VPW 0.378232f
C33 A1 VPW 0.264815f
C34 A2 VPW 0.3189f
C35 VNW VPW 1.65967f
C36 a_36_472# VPW 0.031137f
.ends

.subckt gf180mcu_fd_sc_mcu7t5v0__clkbuf_1 VSS Z I VDD VNW VPW a_36_113#
X0 VDD I a_36_113# VNW pfet_06v0 ad=0.4015p pd=1.92u as=0.462p ps=2.98u w=1.05u l=0.5u
X1 Z a_36_113# VDD VNW pfet_06v0 ad=0.5368p pd=3.32u as=0.4015p ps=1.92u w=1.22u l=0.5u
X2 Z a_36_113# VSS VPW nfet_06v0 ad=0.2178p pd=1.87u as=0.153p ps=1.195u w=0.495u l=0.6u
X3 VSS I a_36_113# VPW nfet_06v0 ad=0.153p pd=1.195u as=0.1584p ps=1.6u w=0.36u l=0.6u
C0 a_36_113# VNW 0.160792f
C1 Z I 0.031362f
C2 VSS I 0.070302f
C3 a_36_113# VDD 0.278283f
C4 a_36_113# Z 0.191876f
C5 VNW VDD 0.088196f
C6 a_36_113# VSS 0.11114f
C7 VNW Z 0.030118f
C8 VNW VSS 0.009307f
C9 a_36_113# I 0.476912f
C10 Z VDD 0.085355f
C11 VSS VDD 0.009561f
C12 VNW I 0.152645f
C13 VSS Z 0.136942f
C14 I VDD 0.028968f
C15 VSS VPW 0.283681f
C16 Z VPW 0.117185f
C17 VDD VPW 0.180237f
C18 I VPW 0.336876f
C19 VNW VPW 1.31158f
C20 a_36_113# VPW 0.418095f
.ends

.subckt gf180mcu_fd_sc_mcu7t5v0__fillcap_32 VDD VSS VNW VPW a_1916_375# a_1380_472#
+ a_3260_375# a_36_472# a_932_472# a_2812_375# a_2276_472# a_1828_472# a_3172_472#
+ a_572_375# a_2724_472# a_124_375# a_1468_375# a_1020_375# a_484_472# a_2364_375#
X0 VDD a_572_375# a_484_472# VNW pfet_06v0 ad=0.5368p pd=3.32u as=0.5368p ps=3.32u w=1.22u l=1u
X1 VDD a_2364_375# a_2276_472# VNW pfet_06v0 ad=0.5368p pd=3.32u as=0.5368p ps=3.32u w=1.22u l=1u
X2 a_572_375# a_484_472# VSS VPW nfet_06v0 ad=0.3608p pd=2.52u as=0.3608p ps=2.52u w=0.82u l=1u
X3 VDD a_1916_375# a_1828_472# VNW pfet_06v0 ad=0.5368p pd=3.32u as=0.5368p ps=3.32u w=1.22u l=1u
X4 a_124_375# a_36_472# VSS VPW nfet_06v0 ad=0.3608p pd=2.52u as=0.3608p ps=2.52u w=0.82u l=1u
X5 a_1916_375# a_1828_472# VSS VPW nfet_06v0 ad=0.3608p pd=2.52u as=0.3608p ps=2.52u w=0.82u l=1u
X6 a_1468_375# a_1380_472# VSS VPW nfet_06v0 ad=0.3608p pd=2.52u as=0.3608p ps=2.52u w=0.82u l=1u
X7 a_2812_375# a_2724_472# VSS VPW nfet_06v0 ad=0.3608p pd=2.52u as=0.3608p ps=2.52u w=0.82u l=1u
X8 VDD a_3260_375# a_3172_472# VNW pfet_06v0 ad=0.5368p pd=3.32u as=0.5368p ps=3.32u w=1.22u l=1u
X9 a_2364_375# a_2276_472# VSS VPW nfet_06v0 ad=0.3608p pd=2.52u as=0.3608p ps=2.52u w=0.82u l=1u
X10 VDD a_2812_375# a_2724_472# VNW pfet_06v0 ad=0.5368p pd=3.32u as=0.5368p ps=3.32u w=1.22u l=1u
X11 a_3260_375# a_3172_472# VSS VPW nfet_06v0 ad=0.3608p pd=2.52u as=0.3608p ps=2.52u w=0.82u l=1u
X12 VDD a_1020_375# a_932_472# VNW pfet_06v0 ad=0.5368p pd=3.32u as=0.5368p ps=3.32u w=1.22u l=1u
X13 VDD a_1468_375# a_1380_472# VNW pfet_06v0 ad=0.5368p pd=3.32u as=0.5368p ps=3.32u w=1.22u l=1u
X14 VDD a_124_375# a_36_472# VNW pfet_06v0 ad=0.5368p pd=3.32u as=0.5368p ps=3.32u w=1.22u l=1u
X15 a_1020_375# a_932_472# VSS VPW nfet_06v0 ad=0.3608p pd=2.52u as=0.3608p ps=2.52u w=0.82u l=1u
C0 VDD a_1916_375# 0.129962f
C1 VSS a_932_472# 0.142721f
C2 a_2364_375# a_2276_472# 0.285629f
C3 VSS a_1020_375# 0.131736f
C4 VDD a_572_375# 0.129962f
C5 a_2364_375# a_2724_472# 0.087174f
C6 a_2812_375# a_2724_472# 0.285629f
C7 a_3172_472# VSS 0.139489f
C8 VNW a_2276_472# 0.024018f
C9 VNW a_2724_472# 0.024018f
C10 a_1380_472# a_932_472# 0.013276f
C11 a_484_472# VNW 0.024018f
C12 a_1020_375# a_1380_472# 0.087174f
C13 a_1020_375# a_932_472# 0.285629f
C14 a_2276_472# a_2724_472# 0.013276f
C15 VDD a_2364_375# 0.129962f
C16 VDD a_2812_375# 0.129962f
C17 VNW a_1468_375# 0.181468f
C18 VSS a_1828_472# 0.142721f
C19 a_124_375# a_572_375# 0.013103f
C20 VSS a_1916_375# 0.131736f
C21 VSS a_572_375# 0.131736f
C22 VNW VDD 0.425768f
C23 VDD a_2276_472# 0.179463f
C24 a_1380_472# a_1828_472# 0.013276f
C25 VDD a_2724_472# 0.179463f
C26 a_2812_375# a_3260_375# 0.013103f
C27 a_484_472# VDD 0.179463f
C28 a_572_375# a_932_472# 0.087174f
C29 a_1020_375# a_572_375# 0.013103f
C30 VSS a_2364_375# 0.131736f
C31 VSS a_2812_375# 0.131736f
C32 VDD a_1468_375# 0.129962f
C33 VNW a_3260_375# 0.18122f
C34 a_124_375# VNW 0.180172f
C35 VNW VSS 0.035286f
C36 VSS a_2276_472# 0.142721f
C37 a_484_472# a_124_375# 0.087174f
C38 VSS a_2724_472# 0.142721f
C39 a_1828_472# a_1916_375# 0.285629f
C40 a_36_472# VNW 0.025611f
C41 a_484_472# VSS 0.142721f
C42 a_3172_472# a_2812_375# 0.087174f
C43 VNW a_1380_472# 0.024018f
C44 VSS a_1468_375# 0.131736f
C45 VNW a_932_472# 0.024018f
C46 VDD a_3260_375# 0.129266f
C47 a_484_472# a_36_472# 0.013276f
C48 VNW a_1020_375# 0.181468f
C49 a_3172_472# VNW 0.024396f
C50 a_124_375# VDD 0.12673f
C51 VDD VSS 0.052737f
C52 a_484_472# a_932_472# 0.013276f
C53 a_3172_472# a_2724_472# 0.013276f
C54 a_1380_472# a_1468_375# 0.285629f
C55 a_2364_375# a_1916_375# 0.013103f
C56 a_36_472# VDD 0.093681f
C57 a_1020_375# a_1468_375# 0.013103f
C58 VDD a_1380_472# 0.179463f
C59 VNW a_1828_472# 0.024018f
C60 VSS a_3260_375# 0.081304f
C61 VDD a_932_472# 0.179463f
C62 VNW a_1916_375# 0.181468f
C63 VDD a_1020_375# 0.129962f
C64 VNW a_572_375# 0.181468f
C65 a_1828_472# a_2276_472# 0.013276f
C66 a_2276_472# a_1916_375# 0.087174f
C67 a_3172_472# VDD 0.179463f
C68 a_124_375# VSS 0.131736f
C69 a_484_472# a_572_375# 0.285629f
C70 a_2812_375# a_2364_375# 0.013103f
C71 a_1828_472# a_1468_375# 0.087174f
C72 a_124_375# a_36_472# 0.285629f
C73 a_1468_375# a_1916_375# 0.013103f
C74 a_36_472# VSS 0.142026f
C75 VNW a_2364_375# 0.181468f
C76 VNW a_2812_375# 0.181468f
C77 VDD a_1828_472# 0.179463f
C78 a_3172_472# a_3260_375# 0.285629f
C79 VSS a_1380_472# 0.142721f
C80 VSS VPW 1.20585f
C81 VDD VPW 0.907304f
C82 VNW VPW 5.83682f
C83 a_3172_472# VPW 0.345058f
C84 a_2724_472# VPW 0.33241f
C85 a_2276_472# VPW 0.33241f
C86 a_1828_472# VPW 0.33241f
C87 a_1380_472# VPW 0.33241f
C88 a_932_472# VPW 0.33241f
C89 a_484_472# VPW 0.33241f
C90 a_36_472# VPW 0.404746f
C91 a_3260_375# VPW 0.233093f
C92 a_2812_375# VPW 0.17167f
C93 a_2364_375# VPW 0.17167f
C94 a_1916_375# VPW 0.17167f
C95 a_1468_375# VPW 0.17167f
C96 a_1020_375# VPW 0.17167f
C97 a_572_375# VPW 0.17167f
C98 a_124_375# VPW 0.185915f
.ends

.subckt gf180mcu_fd_sc_mcu7t5v0__nand3_1 A3 VDD VSS ZN A1 A2 VNW VPW a_455_68# a_271_68#
X0 ZN A1 a_455_68# VPW nfet_06v0 ad=0.3608p pd=2.52u as=0.1722p ps=1.24u w=0.82u l=0.6u
X1 ZN A3 VDD VNW pfet_06v0 ad=0.2561p pd=1.505u as=0.4334p ps=2.85u w=0.985u l=0.5u
X2 VDD A2 ZN VNW pfet_06v0 ad=0.2561p pd=1.505u as=0.2561p ps=1.505u w=0.985u l=0.5u
X3 ZN A1 VDD VNW pfet_06v0 ad=0.4334p pd=2.85u as=0.2561p ps=1.505u w=0.985u l=0.5u
X4 a_271_68# A3 VSS VPW nfet_06v0 ad=0.1312p pd=1.14u as=0.3608p ps=2.52u w=0.82u l=0.6u
X5 a_455_68# A2 a_271_68# VPW nfet_06v0 ad=0.1722p pd=1.24u as=0.1312p ps=1.14u w=0.82u l=0.6u
C0 ZN a_271_68# 0.001916f
C1 ZN a_455_68# 0.002926f
C2 VSS a_271_68# 0.006038f
C3 VSS a_455_68# 0.006909f
C4 VNW A2 0.121191f
C5 A2 ZN 0.078589f
C6 A1 VDD 0.022021f
C7 A2 VSS 0.104901f
C8 VNW A1 0.12917f
C9 A3 A2 0.117566f
C10 A2 a_271_68# 0.004027f
C11 A2 a_455_68# 0.005127f
C12 A1 ZN 0.384588f
C13 A1 VSS 0.084906f
C14 A1 a_455_68# 0.004981f
C15 VNW VDD 0.112537f
C16 A2 A1 0.133044f
C17 ZN VDD 0.33173f
C18 VSS VDD 0.008734f
C19 VNW ZN 0.034322f
C20 VNW VSS 0.008577f
C21 A3 VDD 0.079999f
C22 VNW A3 0.148237f
C23 VSS ZN 0.064021f
C24 A3 ZN 0.008403f
C25 A2 VDD 0.023177f
C26 A3 VSS 0.07804f
C27 VSS VPW 0.307914f
C28 ZN VPW 0.133449f
C29 VDD VPW 0.241872f
C30 A1 VPW 0.287469f
C31 A2 VPW 0.25736f
C32 A3 VPW 0.326833f
C33 VNW VPW 1.48562f
.ends

.subckt gf180mcu_fd_sc_mcu7t5v0__nand2_1 VDD VSS ZN A1 A2 VNW VPW a_245_68#
X0 ZN A2 VDD VNW pfet_06v0 ad=0.2938p pd=1.65u as=0.4972p ps=3.14u w=1.13u l=0.5u
X1 ZN A1 a_245_68# VPW nfet_06v0 ad=0.3608p pd=2.52u as=0.1312p ps=1.14u w=0.82u l=0.6u
X2 VDD A1 ZN VNW pfet_06v0 ad=0.4972p pd=3.14u as=0.2938p ps=1.65u w=1.13u l=0.5u
X3 a_245_68# A2 VSS VPW nfet_06v0 ad=0.1312p pd=1.14u as=0.3608p ps=2.52u w=0.82u l=0.6u
C0 A1 a_245_68# 0.008831f
C1 A2 ZN 0.038658f
C2 A2 VDD 0.039698f
C3 a_245_68# VSS 0.002295f
C4 ZN VDD 0.240333f
C5 A1 VSS 0.131667f
C6 A1 VNW 0.119756f
C7 VSS VNW 0.006174f
C8 A1 A2 0.226398f
C9 A1 ZN 0.351362f
C10 A2 VSS 0.051087f
C11 A1 VDD 0.027485f
C12 ZN VSS 0.098328f
C13 VSS VDD 0.017706f
C14 A2 VNW 0.125396f
C15 ZN VNW 0.02653f
C16 VNW VDD 0.084263f
C17 VSS VPW 0.238729f
C18 ZN VPW 0.105772f
C19 VDD VPW 0.243067f
C20 A1 VPW 0.290957f
C21 A2 VPW 0.314823f
C22 VNW VPW 1.13753f
.ends

.subckt gf180mcu_fd_sc_mcu7t5v0__or2_1 VDD VSS Z A1 A2 VNW VPW a_255_603# a_67_603#
X0 a_255_603# A1 a_67_603# VNW pfet_06v0 ad=0.1469p pd=1.085u as=0.2486p ps=2.01u w=0.565u l=0.5u
X1 Z a_67_603# VSS VPW nfet_06v0 ad=0.3608p pd=2.52u as=0.2288p ps=1.58u w=0.82u l=0.6u
X2 VDD A2 a_255_603# VNW pfet_06v0 ad=0.38705p pd=2.08u as=0.1469p ps=1.085u w=0.565u l=0.5u
X3 VSS A2 a_67_603# VPW nfet_06v0 ad=0.2288p pd=1.58u as=93.59999f ps=0.88u w=0.36u l=0.6u
X4 Z a_67_603# VDD VNW pfet_06v0 ad=0.5368p pd=3.32u as=0.38705p ps=2.08u w=1.22u l=0.5u
X5 a_67_603# A1 VSS VPW nfet_06v0 ad=93.59999f pd=0.88u as=0.1584p ps=1.6u w=0.36u l=0.6u
C0 VSS Z 0.158265f
C1 A2 a_255_603# 0.001961f
C2 VSS a_67_603# 0.250493f
C3 Z a_67_603# 0.181586f
C4 A2 A1 0.062395f
C5 VNW A1 0.220003f
C6 A2 VDD 0.147628f
C7 VNW VDD 0.11771f
C8 A2 VSS 0.025748f
C9 VNW VSS 0.010039f
C10 a_255_603# VDD 0.005359f
C11 A2 Z 0.027598f
C12 VNW Z 0.033884f
C13 A2 a_67_603# 0.505374f
C14 VNW a_67_603# 0.157241f
C15 VDD A1 0.01431f
C16 a_255_603# a_67_603# 0.007617f
C17 VSS A1 0.050738f
C18 VDD VSS 0.008648f
C19 A1 a_67_603# 0.540888f
C20 A2 VNW 0.216313f
C21 VDD Z 0.196046f
C22 VDD a_67_603# 0.307039f
C23 VSS VPW 0.359722f
C24 Z VPW 0.102754f
C25 VDD VPW 0.233025f
C26 A2 VPW 0.313441f
C27 A1 VPW 0.39469f
C28 VNW VPW 1.65967f
C29 a_67_603# VPW 0.345683f
.ends

.subckt gf180mcu_fd_sc_mcu7t5v0__oai211_4 B C VDD VSS ZN A1 A2 VNW VPW a_36_68# a_1612_497#
+ a_2124_68# a_244_497# a_2960_68# a_3368_68# a_2552_68# a_1164_497# a_716_497#
X0 VDD A2 a_1612_497# VNW pfet_06v0 ad=0.3766p pd=1.815u as=0.4599p ps=1.935u w=1.095u l=0.5u
X1 VDD C ZN VNW pfet_06v0 ad=0.2561p pd=1.505u as=0.2561p ps=1.505u w=0.985u l=0.5u
X2 ZN A1 a_36_68# VPW nfet_06v0 ad=0.2132p pd=1.34u as=0.2132p ps=1.34u w=0.82u l=0.6u
X3 a_716_497# A1 ZN VNW pfet_06v0 ad=0.3942p pd=1.815u as=0.2847p ps=1.615u w=1.095u l=0.5u
X4 VDD A2 a_716_497# VNW pfet_06v0 ad=0.2847p pd=1.615u as=0.3942p ps=1.815u w=1.095u l=0.5u
X5 ZN C VDD VNW pfet_06v0 ad=0.2561p pd=1.505u as=0.2561p ps=1.505u w=0.985u l=0.5u
X6 a_2124_68# B a_36_68# VPW nfet_06v0 ad=0.1722p pd=1.24u as=0.2132p ps=1.34u w=0.82u l=0.6u
X7 VDD C ZN VNW pfet_06v0 ad=0.2561p pd=1.505u as=0.2561p ps=1.505u w=0.985u l=0.5u
X8 ZN A2 a_36_68# VPW nfet_06v0 ad=0.30965p pd=1.685u as=0.3608p ps=2.52u w=0.82u l=0.6u
X9 a_36_68# A2 ZN VPW nfet_06v0 ad=0.2132p pd=1.34u as=0.30965p ps=1.685u w=0.82u l=0.6u
X10 VSS C a_2960_68# VPW nfet_06v0 ad=0.2132p pd=1.34u as=0.1312p ps=1.14u w=0.82u l=0.6u
X11 VDD B ZN VNW pfet_06v0 ad=0.2561p pd=1.505u as=0.2561p ps=1.505u w=0.985u l=0.5u
X12 ZN C VDD VNW pfet_06v0 ad=0.2561p pd=1.505u as=0.2561p ps=1.505u w=0.985u l=0.5u