* NGSPICE file created from sarlogic.ext - technology: gf180mcuD

.subckt gf180mcu_fd_sc_mcu7t5v0__fillcap_8 VDD VSS VPW VNW VSUBS
X0 VDD a_572_375# a_484_472# VNW pfet_06v0 ad=0.5368p pd=3.32u as=0.5368p ps=3.32u w=1.22u l=1u
X1 a_572_375# a_484_472# VSS VSUBS nfet_06v0 ad=0.3608p pd=2.52u as=0.3608p ps=2.52u w=0.82u l=1u
X2 a_124_375# a_36_472# VSS VSUBS nfet_06v0 ad=0.3608p pd=2.52u as=0.3608p ps=2.52u w=0.82u l=1u
X3 VDD a_124_375# a_36_472# VNW pfet_06v0 ad=0.5368p pd=3.32u as=0.5368p ps=3.32u w=1.22u l=1u
.ends

.subckt gf180mcu_fd_sc_mcu7t5v0__antenna VSS I VDD VPW VNW VSUBS
D0 VSUBS I diode_nd2ps_06v0 pj=1.86u area=0.2052p
D1 I VNW diode_pd2nw_06v0 pj=1.86u area=0.2052p
.ends

.subckt gf180mcu_fd_sc_mcu7t5v0__dffrnq_1 D Q RN VSS CLK VDD VPW VNW VSUBS
X0 VSS CLK a_36_151# VSUBS nfet_06v0 ad=0.1053p pd=0.925u as=0.1782p ps=1.69u w=0.405u l=0.6u
X1 VSS RN a_1456_156# VSUBS nfet_06v0 ad=0.2016p pd=1.48u as=43.199997f ps=0.6u w=0.36u l=0.6u
X2 Q a_2665_112# VDD VNW pfet_06v0 ad=0.5346p pd=3.31u as=0.5346p ps=3.31u w=1.215u l=0.5u
X3 a_796_472# D VSS VSUBS nfet_06v0 ad=93.59999f pd=0.88u as=0.1584p ps=1.6u w=0.36u l=0.6u
X4 VSS a_2665_112# a_2560_156# VSUBS nfet_06v0 ad=0.1224p pd=1.04u as=94.5f ps=0.885u w=0.36u l=0.6u
X5 a_2665_112# a_2248_156# a_3041_156# VSUBS nfet_06v0 ad=0.176p pd=1.68u as=0.134p ps=1.1u w=0.4u l=0.6u
X6 a_1000_472# a_448_472# a_796_472# VNW pfet_06v0 ad=0.2028p pd=1.3u as=0.2028p ps=1.3u w=0.78u l=0.5u
X7 a_2248_156# a_36_151# a_1308_423# VNW pfet_06v0 ad=0.25375p pd=1.51u as=0.2424p ps=1.465u w=0.505u l=0.5u
X8 a_2248_156# a_448_472# a_1308_423# VSUBS nfet_06v0 ad=0.2007p pd=1.475u as=0.2007p ps=1.475u w=0.36u l=0.6u
X9 VDD CLK a_36_151# VNW pfet_06v0 ad=0.2249p pd=1.385u as=0.3806p ps=2.61u w=0.865u l=0.5u
X10 a_1456_156# a_1308_423# a_1288_156# VSUBS nfet_06v0 ad=43.199997f pd=0.6u as=43.199997f ps=0.6u w=0.36u l=0.6u
X11 a_1308_423# a_1000_472# VSS VSUBS nfet_06v0 ad=0.2007p pd=1.475u as=0.2016p ps=1.48u w=0.36u l=0.6u
X12 Q a_2665_112# VSS VSUBS nfet_06v0 ad=0.3586p pd=2.51u as=0.3586p ps=2.51u w=0.815u l=0.6u
X13 a_448_472# a_36_151# VDD VNW pfet_06v0 ad=0.3806p pd=2.61u as=0.2249p ps=1.385u w=0.865u l=0.5u
X14 a_1204_472# a_36_151# a_1000_472# VNW pfet_06v0 ad=0.2028p pd=1.3u as=0.2028p ps=1.3u w=0.78u l=0.5u
X15 a_1204_472# RN VDD VNW pfet_06v0 ad=0.3432p pd=2.44u as=0.45p ps=2.02u w=0.78u l=0.5u
X16 a_2665_112# RN VDD VNW pfet_06v0 ad=0.26p pd=1.52u as=0.29465p ps=1.74u w=1u l=0.5u
X17 a_2560_156# a_36_151# a_2248_156# VSUBS nfet_06v0 ad=94.5f pd=0.885u as=0.2007p ps=1.475u w=0.36u l=0.6u
X18 VDD a_2248_156# a_2665_112# VNW pfet_06v0 ad=0.44p pd=2.88u as=0.26p ps=1.52u w=1u l=0.5u
X19 a_1288_156# a_448_472# a_1000_472# VSUBS nfet_06v0 ad=43.199997f pd=0.6u as=93.59999f ps=0.88u w=0.36u l=0.6u
X20 VDD a_1308_423# a_1204_472# VNW pfet_06v0 ad=0.45p pd=2.02u as=0.2028p ps=1.3u w=0.78u l=0.5u
X21 a_2560_156# a_448_472# a_2248_156# VNW pfet_06v0 ad=0.1313p pd=1.025u as=0.25375p ps=1.51u w=0.505u l=0.5u
X22 a_448_472# a_36_151# VSS VSUBS nfet_06v0 ad=0.1782p pd=1.69u as=0.1053p ps=0.925u w=0.405u l=0.6u
X23 a_3041_156# RN VSS VSUBS nfet_06v0 ad=0.134p pd=1.1u as=0.1224p ps=1.04u w=0.36u l=0.6u
X24 VDD a_2665_112# a_2560_156# VNW pfet_06v0 ad=0.29465p pd=1.74u as=0.1313p ps=1.025u w=0.505u l=0.5u
X25 a_1308_423# a_1000_472# VDD VNW pfet_06v0 ad=0.2424p pd=1.465u as=0.2222p ps=1.89u w=0.505u l=0.5u
X26 a_1000_472# a_36_151# a_796_472# VSUBS nfet_06v0 ad=93.59999f pd=0.88u as=93.59999f ps=0.88u w=0.36u l=0.6u
X27 a_796_472# D VDD VNW pfet_06v0 ad=0.2028p pd=1.3u as=0.3432p ps=2.44u w=0.78u l=0.5u
.ends

.subckt gf180mcu_fd_sc_mcu7t5v0__nor2_1 VDD VSS ZN A1 A2 VPW VNW VSUBS
X0 ZN A1 a_224_472# VNW pfet_06v0 ad=0.5368p pd=3.32u as=0.4087p ps=1.89u w=1.22u l=0.5u
X1 VSS A1 ZN VSUBS nfet_06v0 ad=0.2486p pd=2.01u as=0.1469p ps=1.085u w=0.565u l=0.6u
X2 a_224_472# A2 VDD VNW pfet_06v0 ad=0.4087p pd=1.89u as=0.5368p ps=3.32u w=1.22u l=0.5u
X3 ZN A2 VSS VSUBS nfet_06v0 ad=0.1469p pd=1.085u as=0.2486p ps=2.01u w=0.565u l=0.6u
.ends

.subckt gf180mcu_fd_sc_mcu7t5v0__oai22_1 A2 B1 B2 VDD VSS ZN A1 VPW VNW VSUBS
X0 ZN A1 a_36_68# VSUBS nfet_06v0 ad=0.2132p pd=1.34u as=0.2132p ps=1.34u w=0.82u l=0.6u
X1 VSS B2 a_36_68# VSUBS nfet_06v0 ad=0.2132p pd=1.34u as=0.3608p ps=2.52u w=0.82u l=0.6u
X2 a_244_472# B2 VDD VNW pfet_06v0 ad=0.3782p pd=1.84u as=0.6588p ps=3.52u w=1.22u l=0.5u
X3 a_692_472# A1 ZN VNW pfet_06v0 ad=0.3172p pd=1.74u as=0.3782p ps=1.84u w=1.22u l=0.5u
X4 VDD A2 a_692_472# VNW pfet_06v0 ad=0.5368p pd=3.32u as=0.3172p ps=1.74u w=1.22u l=0.5u
X5 a_36_68# A2 ZN VSUBS nfet_06v0 ad=0.3608p pd=2.52u as=0.2132p ps=1.34u w=0.82u l=0.6u
X6 a_36_68# B1 VSS VSUBS nfet_06v0 ad=0.2132p pd=1.34u as=0.2132p ps=1.34u w=0.82u l=0.6u
X7 ZN B1 a_244_472# VNW pfet_06v0 ad=0.3782p pd=1.84u as=0.3782p ps=1.84u w=1.22u l=0.5u
.ends

.subckt gf180mcu_fd_sc_mcu7t5v0__aoi22_1 B1 B2 VDD VSS ZN A1 A2 VPW VNW VSUBS
X0 ZN B1 a_257_69# VSUBS nfet_06v0 ad=0.2119p pd=1.335u as=0.1304p ps=1.135u w=0.815u l=0.6u
X1 VDD B2 a_49_472# VNW pfet_06v0 ad=0.3159p pd=1.735u as=0.5346p ps=3.31u w=1.215u l=0.5u
X2 a_49_472# B1 VDD VNW pfet_06v0 ad=0.3159p pd=1.735u as=0.3159p ps=1.735u w=1.215u l=0.5u
X3 ZN A1 a_49_472# VNW pfet_06v0 ad=0.3159p pd=1.735u as=0.3159p ps=1.735u w=1.215u l=0.5u
X4 a_49_472# A2 ZN VNW pfet_06v0 ad=0.5346p pd=3.31u as=0.3159p ps=1.735u w=1.215u l=0.5u
X5 a_257_69# B2 VSS VSUBS nfet_06v0 ad=0.1304p pd=1.135u as=0.3586p ps=2.51u w=0.815u l=0.6u
X6 a_665_69# A1 ZN VSUBS nfet_06v0 ad=0.1304p pd=1.135u as=0.2119p ps=1.335u w=0.815u l=0.6u
X7 VSS A2 a_665_69# VSUBS nfet_06v0 ad=0.3586p pd=2.51u as=0.1304p ps=1.135u w=0.815u l=0.6u
.ends

.subckt gf180mcu_fd_sc_mcu7t5v0__buf_1 VSS Z I VDD VPW VNW VSUBS
X0 Z a_36_160# VSS VSUBS nfet_06v0 ad=0.3608p pd=2.52u as=0.2344p ps=1.56u w=0.82u l=0.6u
X1 Z a_36_160# VDD VNW pfet_06v0 ad=0.5368p pd=3.32u as=0.35315p ps=1.96u w=1.22u l=0.5u
X2 VDD I a_36_160# VNW pfet_06v0 ad=0.35315p pd=1.96u as=0.2486p ps=2.01u w=0.565u l=0.5u
X3 VSS I a_36_160# VSUBS nfet_06v0 ad=0.2344p pd=1.56u as=0.1584p ps=1.6u w=0.36u l=0.6u
.ends

.subckt gf180mcu_fd_sc_mcu7t5v0__clkinv_1 VDD VSS I ZN VPW VNW VSUBS
X0 ZN I VSS VSUBS nfet_06v0 ad=0.2112p pd=1.84u as=0.2112p ps=1.84u w=0.48u l=0.6u
X1 ZN I VDD VNW pfet_06v0 ad=0.5368p pd=3.32u as=0.5368p ps=3.32u w=1.22u l=0.5u
.ends

.subckt gf180mcu_fd_sc_mcu7t5v0__inv_1 VSS ZN I VDD VPW VNW VSUBS
X0 ZN I VSS VSUBS nfet_06v0 ad=0.3608p pd=2.52u as=0.3608p ps=2.52u w=0.82u l=0.6u
X1 ZN I VDD VNW pfet_06v0 ad=0.5368p pd=3.32u as=0.5368p ps=3.32u w=1.22u l=0.5u
.ends

.subckt gf180mcu_fd_sc_mcu7t5v0__fillcap_4 VDD VSS VPW VNW VSUBS
X0 a_124_375# a_36_472# VSS VSUBS nfet_06v0 ad=0.3608p pd=2.52u as=0.3608p ps=2.52u w=0.82u l=1u
X1 VDD a_124_375# a_36_472# VNW pfet_06v0 ad=0.5368p pd=3.32u as=0.5368p ps=3.32u w=1.22u l=1u
.ends

.subckt gf180mcu_fd_sc_mcu7t5v0__buf_8 Z I VDD VSS VPW VNW VSUBS
X0 a_224_472# I VDD VNW pfet_06v0 ad=0.3782p pd=1.84u as=0.3782p ps=1.84u w=1.22u l=0.5u
X1 Z a_224_472# VDD VNW pfet_06v0 ad=0.3782p pd=1.84u as=0.3782p ps=1.84u w=1.22u l=0.5u
X2 a_224_472# I VSS VSUBS nfet_06v0 ad=0.2132p pd=1.34u as=0.2132p ps=1.34u w=0.82u l=0.6u
X3 VSS a_224_472# Z VSUBS nfet_06v0 ad=0.3608p pd=2.52u as=0.2132p ps=1.34u w=0.82u l=0.6u
X4 VDD a_224_472# Z VNW pfet_06v0 ad=0.3782p pd=1.84u as=0.3782p ps=1.84u w=1.22u l=0.5u
X5 Z a_224_472# VDD VNW pfet_06v0 ad=0.3782p pd=1.84u as=0.3782p ps=1.84u w=1.22u l=0.5u
X6 a_224_472# I VSS VSUBS nfet_06v0 ad=0.2132p pd=1.34u as=0.3608p ps=2.52u w=0.82u l=0.6u
X7 Z a_224_472# VSS VSUBS nfet_06v0 ad=0.2132p pd=1.34u as=0.2132p ps=1.34u w=0.82u l=0.6u
X8 VDD a_224_472# Z VNW pfet_06v0 ad=0.3782p pd=1.84u as=0.3782p ps=1.84u w=1.22u l=0.5u
X9 Z a_224_472# VSS VSUBS nfet_06v0 ad=0.2132p pd=1.34u as=0.2132p ps=1.34u w=0.82u l=0.6u
X10 Z a_224_472# VSS VSUBS nfet_06v0 ad=0.2132p pd=1.34u as=0.2132p ps=1.34u w=0.82u l=0.6u
X11 VDD I a_224_472# VNW pfet_06v0 ad=0.3782p pd=1.84u as=0.3782p ps=1.84u w=1.22u l=0.5u
X12 VDD a_224_472# Z VNW pfet_06v0 ad=0.3782p pd=1.84u as=0.3782p ps=1.84u w=1.22u l=0.5u
X13 Z a_224_472# VDD VNW pfet_06v0 ad=0.3782p pd=1.84u as=0.3782p ps=1.84u w=1.22u l=0.5u
X14 VSS a_224_472# Z VSUBS nfet_06v0 ad=0.2132p pd=1.34u as=0.2132p ps=1.34u w=0.82u l=0.6u
X15 VDD I a_224_472# VNW pfet_06v0 ad=0.3782p pd=1.84u as=0.3782p ps=1.84u w=1.22u l=0.5u
X16 VSS a_224_472# Z VSUBS nfet_06v0 ad=0.2132p pd=1.34u as=0.2132p ps=1.34u w=0.82u l=0.6u
X17 VDD a_224_472# Z VNW pfet_06v0 ad=0.5368p pd=3.32u as=0.3782p ps=1.84u w=1.22u l=0.5u
X18 VSS a_224_472# Z VSUBS nfet_06v0 ad=0.2132p pd=1.34u as=0.2132p ps=1.34u w=0.82u l=0.6u
X19 Z a_224_472# VDD VNW pfet_06v0 ad=0.3782p pd=1.84u as=0.3782p ps=1.84u w=1.22u l=0.5u
X20 VSS I a_224_472# VSUBS nfet_06v0 ad=0.2132p pd=1.34u as=0.2132p ps=1.34u w=0.82u l=0.6u
X21 a_224_472# I VDD VNW pfet_06v0 ad=0.3782p pd=1.84u as=0.5368p ps=3.32u w=1.22u l=0.5u
X22 VSS I a_224_472# VSUBS nfet_06v0 ad=0.2132p pd=1.34u as=0.2132p ps=1.34u w=0.82u l=0.6u
X23 Z a_224_472# VSS VSUBS nfet_06v0 ad=0.2132p pd=1.34u as=0.2132p ps=1.34u w=0.82u l=0.6u
.ends

.subckt gf180mcu_fd_sc_mcu7t5v0__aoi21_1 B VDD VSS ZN A1 A2 VPW VNW VSUBS
X0 a_244_68# A2 VSS VSUBS nfet_06v0 ad=0.1312p pd=1.14u as=0.3608p ps=2.52u w=0.82u l=0.6u
X1 ZN A1 a_244_68# VSUBS nfet_06v0 ad=0.2569p pd=1.56u as=0.1312p ps=1.14u w=0.82u l=0.6u
X2 VDD B a_36_472# VNW pfet_06v0 ad=0.5346p pd=3.31u as=0.44955p ps=1.955u w=1.215u l=0.5u
X3 ZN A2 a_36_472# VNW pfet_06v0 ad=0.3159p pd=1.735u as=0.5346p ps=3.31u w=1.215u l=0.5u
X4 a_36_472# A1 ZN VNW pfet_06v0 ad=0.44955p pd=1.955u as=0.3159p ps=1.735u w=1.215u l=0.5u
X5 VSS B ZN VSUBS nfet_06v0 ad=0.2244p pd=1.9u as=0.2569p ps=1.56u w=0.51u l=0.6u
.ends

.subckt gf180mcu_fd_sc_mcu7t5v0__clkbuf_1 VSS Z I VDD VPW VNW VSUBS
X0 VDD I a_36_113# VNW pfet_06v0 ad=0.4015p pd=1.92u as=0.462p ps=2.98u w=1.05u l=0.5u
X1 Z a_36_113# VDD VNW pfet_06v0 ad=0.5368p pd=3.32u as=0.4015p ps=1.92u w=1.22u l=0.5u
X2 Z a_36_113# VSS VSUBS nfet_06v0 ad=0.2178p pd=1.87u as=0.153p ps=1.195u w=0.495u l=0.6u
X3 VSS I a_36_113# VSUBS nfet_06v0 ad=0.153p pd=1.195u as=0.1584p ps=1.6u w=0.36u l=0.6u
.ends

.subckt gf180mcu_fd_sc_mcu7t5v0__fillcap_32 VDD VSS VPW VNW VSUBS
X0 VDD a_572_375# a_484_472# VNW pfet_06v0 ad=0.5368p pd=3.32u as=0.5368p ps=3.32u w=1.22u l=1u
X1 VDD a_2364_375# a_2276_472# VNW pfet_06v0 ad=0.5368p pd=3.32u as=0.5368p ps=3.32u w=1.22u l=1u
X2 a_572_375# a_484_472# VSS VSUBS nfet_06v0 ad=0.3608p pd=2.52u as=0.3608p ps=2.52u w=0.82u l=1u
X3 VDD a_1916_375# a_1828_472# VNW pfet_06v0 ad=0.5368p pd=3.32u as=0.5368p ps=3.32u w=1.22u l=1u
X4 a_124_375# a_36_472# VSS VSUBS nfet_06v0 ad=0.3608p pd=2.52u as=0.3608p ps=2.52u w=0.82u l=1u
X5 a_1916_375# a_1828_472# VSS VSUBS nfet_06v0 ad=0.3608p pd=2.52u as=0.3608p ps=2.52u w=0.82u l=1u
X6 a_1468_375# a_1380_472# VSS VSUBS nfet_06v0 ad=0.3608p pd=2.52u as=0.3608p ps=2.52u w=0.82u l=1u
X7 a_2812_375# a_2724_472# VSS VSUBS nfet_06v0 ad=0.3608p pd=2.52u as=0.3608p ps=2.52u w=0.82u l=1u
X8 VDD a_3260_375# a_3172_472# VNW pfet_06v0 ad=0.5368p pd=3.32u as=0.5368p ps=3.32u w=1.22u l=1u
X9 a_2364_375# a_2276_472# VSS VSUBS nfet_06v0 ad=0.3608p pd=2.52u as=0.3608p ps=2.52u w=0.82u l=1u
X10 VDD a_2812_375# a_2724_472# VNW pfet_06v0 ad=0.5368p pd=3.32u as=0.5368p ps=3.32u w=1.22u l=1u
X11 a_3260_375# a_3172_472# VSS VSUBS nfet_06v0 ad=0.3608p pd=2.52u as=0.3608p ps=2.52u w=0.82u l=1u
X12 VDD a_1020_375# a_932_472# VNW pfet_06v0 ad=0.5368p pd=3.32u as=0.5368p ps=3.32u w=1.22u l=1u
X13 VDD a_1468_375# a_1380_472# VNW pfet_06v0 ad=0.5368p pd=3.32u as=0.5368p ps=3.32u w=1.22u l=1u
X14 VDD a_124_375# a_36_472# VNW pfet_06v0 ad=0.5368p pd=3.32u as=0.5368p ps=3.32u w=1.22u l=1u
X15 a_1020_375# a_932_472# VSS VSUBS nfet_06v0 ad=0.3608p pd=2.52u as=0.3608p ps=2.52u w=0.82u l=1u
.ends

.subckt gf180mcu_fd_sc_mcu7t5v0__nand3_1 A3 VDD VSS ZN A1 A2 VPW VNW VSUBS
X0 ZN A1 a_455_68# VSUBS nfet_06v0 ad=0.3608p pd=2.52u as=0.1722p ps=1.24u w=0.82u l=0.6u
X1 ZN A3 VDD VNW pfet_06v0 ad=0.2561p pd=1.505u as=0.4334p ps=2.85u w=0.985u l=0.5u
X2 VDD A2 ZN VNW pfet_06v0 ad=0.2561p pd=1.505u as=0.2561p ps=1.505u w=0.985u l=0.5u
X3 ZN A1 VDD VNW pfet_06v0 ad=0.4334p pd=2.85u as=0.2561p ps=1.505u w=0.985u l=0.5u
X4 a_271_68# A3 VSS VSUBS nfet_06v0 ad=0.1312p pd=1.14u as=0.3608p ps=2.52u w=0.82u l=0.6u
X5 a_455_68# A2 a_271_68# VSUBS nfet_06v0 ad=0.1722p pd=1.24u as=0.1312p ps=1.14u w=0.82u l=0.6u
.ends

.subckt gf180mcu_fd_sc_mcu7t5v0__nand2_1 VDD VSS ZN A1 A2 VPW VNW VSUBS
X0 ZN A2 VDD VNW pfet_06v0 ad=0.2938p pd=1.65u as=0.4972p ps=3.14u w=1.13u l=0.5u
X1 ZN A1 a_245_68# VSUBS nfet_06v0 ad=0.3608p pd=2.52u as=0.1312p ps=1.14u w=0.82u l=0.6u
X2 VDD A1 ZN VNW pfet_06v0 ad=0.4972p pd=3.14u as=0.2938p ps=1.65u w=1.13u l=0.5u
X3 a_245_68# A2 VSS VSUBS nfet_06v0 ad=0.1312p pd=1.14u as=0.3608p ps=2.52u w=0.82u l=0.6u
.ends

.subckt gf180mcu_fd_sc_mcu7t5v0__or2_1 VDD VSS Z A1 A2 VPW VNW VSUBS
X0 a_255_603# A1 a_67_603# VNW pfet_06v0 ad=0.1469p pd=1.085u as=0.2486p ps=2.01u w=0.565u l=0.5u
X1 Z a_67_603# VSS VSUBS nfet_06v0 ad=0.3608p pd=2.52u as=0.2288p ps=1.58u w=0.82u l=0.6u
X2 VDD A2 a_255_603# VNW pfet_06v0 ad=0.38705p pd=2.08u as=0.1469p ps=1.085u w=0.565u l=0.5u
X3 VSS A2 a_67_603# VSUBS nfet_06v0 ad=0.2288p pd=1.58u as=93.59999f ps=0.88u w=0.36u l=0.6u
X4 Z a_67_603# VDD VNW pfet_06v0 ad=0.5368p pd=3.32u as=0.38705p ps=2.08u w=1.22u l=0.5u
X5 a_67_603# A1 VSS VSUBS nfet_06v0 ad=93.59999f pd=0.88u as=0.1584p ps=1.6u w=0.36u l=0.6u
.ends

.subckt gf180mcu_fd_sc_mcu7t5v0__oai211_4 B C VDD VSS ZN A1 A2 VPW VNW VSUBS
X0 VDD A2 a_1612_497# VNW pfet_06v0 ad=0.3766p pd=1.815u as=0.4599p ps=1.935u w=1.095u l=0.5u
X1 VDD C ZN VNW pfet_06v0 ad=0.2561p pd=1.505u as=0.2561p ps=1.505u w=0.985u l=0.5u
X2 ZN A1 a_36_68# VSUBS nfet_06v0 ad=0.2132p pd=1.34u as=0.2132p ps=1.34u w=0.82u l=0.6u
X3 a_716_497# A1 ZN VNW pfet_06v0 ad=0.3942p pd=1.815u as=0.2847p ps=1.615u w=1.095u l=0.5u
X4 VDD A2 a_716_497# VNW pfet_06v0 ad=0.2847p pd=1.615u as=0.3942p ps=1.815u w=1.095u l=0.5u
X5 ZN C VDD VNW pfet_06v0 ad=0.2561p pd=1.505u as=0.2561p ps=1.505u w=0.985u l=0.5u
X6 a_2124_68# B a_36_68# VSUBS nfet_06v0 ad=0.1722p pd=1.24u as=0.2132p ps=1.34u w=0.82u l=0.6u
X7 VDD C ZN VNW pfet_06v0 ad=0.2561p pd=1.505u as=0.2561p ps=1.505u w=0.985u l=0.5u
X8 ZN A2 a_36_68# VSUBS nfet_06v0 ad=0.30965p pd=1.685u as=0.3608p ps=2.52u w=0.82u l=0.6u
X9 a_36_68# A2 ZN VSUBS nfet_06v0 ad=0.2132p pd=1.34u as=0.30965p ps=1.685u w=0.82u l=0.6u
X10 VSS C a_2960_68# VSUBS nfet_06v0 ad=0.2132p pd=1.34u as=0.1312p ps=1.14u w=0.82u l=0.6u
X11 VDD B ZN VNW pfet_06v0 ad=0.2561p pd=1.505u as=0.2561p ps=1.505u w=0.985u l=0.5u
X12 ZN C VDD VNW pfet_06v0 ad=0.2561p pd=1.505u as=0.2561p ps=1.505u w=0.985u l=0.5u
X13 a_36_68# A2 ZN VSUBS nfet_06v0 ad=0.2132p pd=1.34u as=0.2132p ps=1.34u w=0.82u l=0.6u
X14 a_1164_497# A2 VDD VNW pfet_06v0 ad=0.3942p pd=1.815u as=0.2847p ps=1.615u w=1.095u l=0.5u
X15 ZN B VDD VNW pfet_06v0 ad=0.2561p pd=1.505u as=0.2561p ps=1.505u w=0.985u l=0.5u
X16 VDD B ZN VNW pfet_06v0 ad=0.4334p pd=2.85u as=0.2561p ps=1.505u w=0.985u l=0.5u
X17 a_36_68# A1 ZN VSUBS nfet_06v0 ad=0.2132p pd=1.34u as=0.30965p ps=1.685u w=0.82u l=0.6u
X18 a_36_68# B a_3368_68# VSUBS nfet_06v0 ad=0.3608p pd=2.52u as=0.1312p ps=1.14u w=0.82u l=0.6u
X19 a_244_497# A2 VDD VNW pfet_06v0 ad=0.4599p pd=1.935u as=0.4818p ps=3.07u w=1.095u l=0.5u
X20 VSS C a_2124_68# VSUBS nfet_06v0 ad=0.2132p pd=1.34u as=0.1722p ps=1.24u w=0.82u l=0.6u
X21 a_36_68# A1 ZN VSUBS nfet_06v0 ad=0.2132p pd=1.34u as=0.2132p ps=1.34u w=0.82u l=0.6u
X22 ZN A1 a_1164_497# VNW pfet_06v0 ad=0.2847p pd=1.615u as=0.3942p ps=1.815u w=1.095u l=0.5u
X23 a_36_68# B a_2552_68# VSUBS nfet_06v0 ad=0.2132p pd=1.34u as=0.1312p ps=1.14u w=0.82u l=0.6u
X24 a_2552_68# C VSS VSUBS nfet_06v0 ad=0.1312p pd=1.14u as=0.2132p ps=1.34u w=0.82u l=0.6u
X25 a_1612_497# A1 ZN VNW pfet_06v0 ad=0.4599p pd=1.935u as=0.2847p ps=1.615u w=1.095u l=0.5u
X26 ZN A1 a_36_68# VSUBS nfet_06v0 ad=0.30965p pd=1.685u as=0.2132p ps=1.34u w=0.82u l=0.6u
X27 ZN A2 a_36_68# VSUBS nfet_06v0 ad=0.2132p pd=1.34u as=0.2132p ps=1.34u w=0.82u l=0.6u
X28 a_3368_68# C VSS VSUBS nfet_06v0 ad=0.1312p pd=1.14u as=0.2132p ps=1.34u w=0.82u l=0.6u
X29 ZN B VDD VNW pfet_06v0 ad=0.2561p pd=1.505u as=0.3766p ps=1.815u w=0.985u l=0.5u
X30 a_2960_68# B a_36_68# VSUBS nfet_06v0 ad=0.1312p pd=1.14u as=0.2132p ps=1.34u w=0.82u l=0.6u
X31 ZN A1 a_244_497# VNW pfet_06v0 ad=0.2847p pd=1.615u as=0.4599p ps=1.935u w=1.095u l=0.5u
.ends

.subckt gf180mcu_fd_sc_mcu7t5v0__clkbuf_2 Z VSS VDD I VPW VNW VSUBS
X0 VDD I a_36_160# VNW pfet_06v0 ad=0.458p pd=2.02u as=0.4488p ps=2.92u w=1.02u l=0.5u
X1 VSS I a_36_160# VSUBS nfet_06v0 ad=0.151p pd=1.185u as=0.1584p ps=1.6u w=0.36u l=0.6u
X2 VDD a_36_160# Z VNW pfet_06v0 ad=0.5368p pd=3.32u as=0.3782p ps=1.84u w=1.22u l=0.5u
X3 Z a_36_160# VDD VNW pfet_06v0 ad=0.3782p pd=1.84u as=0.458p ps=2.02u w=1.22u l=0.5u
X4 VSS a_36_160# Z VSUBS nfet_06v0 ad=0.2134p pd=1.85u as=0.1261p ps=1.005u w=0.485u l=0.6u
X5 Z a_36_160# VSS VSUBS nfet_06v0 ad=0.1261p pd=1.005u as=0.151p ps=1.185u w=0.485u l=0.6u
.ends

.subckt gf180mcu_fd_sc_mcu7t5v0__fillcap_16 VDD VSS VPW VNW VSUBS
X0 VDD a_572_375# a_484_472# VNW pfet_06v0 ad=0.5368p pd=3.32u as=0.5368p ps=3.32u w=1.22u l=1u
X1 a_572_375# a_484_472# VSS VSUBS nfet_06v0 ad=0.3608p pd=2.52u as=0.3608p ps=2.52u w=0.82u l=1u
X2 a_124_375# a_36_472# VSS VSUBS nfet_06v0 ad=0.3608p pd=2.52u as=0.3608p ps=2.52u w=0.82u l=1u
X3 a_1468_375# a_1380_472# VSS VSUBS nfet_06v0 ad=0.3608p pd=2.52u as=0.3608p ps=2.52u w=0.82u l=1u
X4 VDD a_1020_375# a_932_472# VNW pfet_06v0 ad=0.5368p pd=3.32u as=0.5368p ps=3.32u w=1.22u l=1u
X5 VDD a_1468_375# a_1380_472# VNW pfet_06v0 ad=0.5368p pd=3.32u as=0.5368p ps=3.32u w=1.22u l=1u
X6 VDD a_124_375# a_36_472# VNW pfet_06v0 ad=0.5368p pd=3.32u as=0.5368p ps=3.32u w=1.22u l=1u
X7 a_1020_375# a_932_472# VSS VSUBS nfet_06v0 ad=0.3608p pd=2.52u as=0.3608p ps=2.52u w=0.82u l=1u
.ends

.subckt gf180mcu_fd_sc_mcu7t5v0__buf_2 VSS Z I VDD VPW VNW VSUBS
X0 Z a_36_68# VDD VNW pfet_06v0 ad=0.3782p pd=1.84u as=0.4941p ps=2.03u w=1.22u l=0.5u
X1 VSS I a_36_68# VSUBS nfet_06v0 ad=0.2911p pd=1.53u as=0.3608p ps=2.52u w=0.82u l=0.6u
X2 Z a_36_68# VSS VSUBS nfet_06v0 ad=0.2132p pd=1.34u as=0.2911p ps=1.53u w=0.82u l=0.6u
X3 VDD I a_36_68# VNW pfet_06v0 ad=0.4941p pd=2.03u as=0.5368p ps=3.32u w=1.22u l=0.5u
X4 VSS a_36_68# Z VSUBS nfet_06v0 ad=0.3608p pd=2.52u as=0.2132p ps=1.34u w=0.82u l=0.6u
X5 VDD a_36_68# Z VNW pfet_06v0 ad=0.5368p pd=3.32u as=0.3782p ps=1.84u w=1.22u l=0.5u
.ends

.subckt gf180mcu_fd_sc_mcu7t5v0__mux2_2 S VDD VSS Z I0 I1 VPW VNW VSUBS
X0 a_1152_472# S a_124_24# VNW pfet_06v0 ad=0.1464p pd=1.46u as=0.3172p ps=1.74u w=1.22u l=0.5u
X1 a_692_68# I1 VSS VSUBS nfet_06v0 ad=98.399994f pd=1.06u as=0.2132p ps=1.34u w=0.82u l=0.6u
X2 a_124_24# S a_692_68# VSUBS nfet_06v0 ad=0.2132p pd=1.34u as=98.399994f ps=1.06u w=0.82u l=0.6u
X3 Z a_124_24# VSS VSUBS nfet_06v0 ad=0.2132p pd=1.34u as=0.3608p ps=2.52u w=0.82u l=0.6u
X4 a_848_380# S VSS VSUBS nfet_06v0 ad=0.3608p pd=2.52u as=0.2132p ps=1.34u w=0.82u l=0.6u
X5 VDD a_124_24# Z VNW pfet_06v0 ad=0.4392p pd=1.94u as=0.3477p ps=1.79u w=1.22u l=0.5u
X6 VDD I0 a_1152_472# VNW pfet_06v0 ad=0.3172p pd=1.74u as=0.1464p ps=1.46u w=1.22u l=0.5u
X7 a_692_472# I1 VDD VNW pfet_06v0 ad=0.4758p pd=2u as=0.4392p ps=1.94u w=1.22u l=0.5u
X8 a_848_380# S VDD VNW pfet_06v0 ad=0.5368p pd=3.32u as=0.3172p ps=1.74u w=1.22u l=0.5u
X9 Z a_124_24# VDD VNW pfet_06v0 ad=0.3477p pd=1.79u as=0.5368p ps=3.32u w=1.22u l=0.5u
X10 VSS I0 a_1084_68# VSUBS nfet_06v0 ad=0.2132p pd=1.34u as=0.1968p ps=1.3u w=0.82u l=0.6u
X11 a_1084_68# a_848_380# a_124_24# VSUBS nfet_06v0 ad=0.1968p pd=1.3u as=0.2132p ps=1.34u w=0.82u l=0.6u
X12 VSS a_124_24# Z VSUBS nfet_06v0 ad=0.2132p pd=1.34u as=0.2132p ps=1.34u w=0.82u l=0.6u
X13 a_124_24# a_848_380# a_692_472# VNW pfet_06v0 ad=0.3172p pd=1.74u as=0.4758p ps=2u w=1.22u l=0.5u
.ends

.subckt gf180mcu_fd_sc_mcu7t5v0__oai21_1 VDD B A2 ZN A1 VSS VPW VNW VSUBS
X0 VSS B a_36_68# VSUBS nfet_06v0 ad=0.3608p pd=2.52u as=0.2132p ps=1.34u w=0.82u l=0.6u
X1 ZN A2 a_36_68# VSUBS nfet_06v0 ad=0.2132p pd=1.34u as=0.3608p ps=2.52u w=0.82u l=0.6u
X2 VDD B ZN VNW pfet_06v0 ad=0.4972p pd=3.14u as=0.4248p ps=1.94u w=1.13u l=0.5u
X3 a_244_472# A2 VDD VNW pfet_06v0 ad=0.3172p pd=1.74u as=0.5978p ps=3.42u w=1.22u l=0.5u
X4 ZN A1 a_244_472# VNW pfet_06v0 ad=0.4248p pd=1.94u as=0.3172p ps=1.74u w=1.22u l=0.5u
X5 a_36_68# A1 ZN VSUBS nfet_06v0 ad=0.2132p pd=1.34u as=0.2132p ps=1.34u w=0.82u l=0.6u
.ends

.subckt gf180mcu_fd_sc_mcu7t5v0__clkbuf_3 Z VSS VDD I VPW VNW VSUBS
X0 VDD a_224_552# Z VNW pfet_06v0 ad=0.3782p pd=1.84u as=0.3782p ps=1.84u w=1.22u l=0.5u
X1 a_224_552# I VDD VNW pfet_06v0 ad=0.2542p pd=1.44u as=0.3608p ps=2.52u w=0.82u l=0.5u
X2 VSS a_224_552# Z VSUBS nfet_06v0 ad=0.1183p pd=0.975u as=0.1183p ps=0.975u w=0.455u l=0.6u
X3 VDD a_224_552# Z VNW pfet_06v0 ad=0.5368p pd=3.32u as=0.3782p ps=1.84u w=1.22u l=0.5u
X4 VSS a_224_552# Z VSUBS nfet_06v0 ad=0.2002p pd=1.79u as=0.1183p ps=0.975u w=0.455u l=0.6u
X5 Z a_224_552# VDD VNW pfet_06v0 ad=0.3782p pd=1.84u as=0.428p ps=2.02u w=1.22u l=0.5u
X6 Z a_224_552# VSS VSUBS nfet_06v0 ad=0.1183p pd=0.975u as=0.234325p ps=1.94u w=0.455u l=0.6u
X7 VDD I a_224_552# VNW pfet_06v0 ad=0.428p pd=2.02u as=0.2542p ps=1.44u w=0.82u l=0.5u
X8 Z a_224_552# VDD VNW pfet_06v0 ad=0.3782p pd=1.84u as=0.3782p ps=1.84u w=1.22u l=0.5u
X9 a_224_552# I VSS VSUBS nfet_06v0 ad=0.51425p pd=2.91u as=0.2662p ps=2.09u w=0.605u l=0.6u
X10 Z a_224_552# VSS VSUBS nfet_06v0 ad=0.1183p pd=0.975u as=0.1183p ps=0.975u w=0.455u l=0.6u
.ends

.subckt gf180mcu_fd_sc_mcu7t5v0__nor2_2 VDD VSS ZN A1 A2 VPW VNW VSUBS
X0 a_672_472# A1 ZN VNW pfet_06v0 ad=0.4087p pd=1.89u as=0.3477p ps=1.79u w=1.22u l=0.5u
X1 ZN A1 VSS VSUBS nfet_06v0 ad=0.1469p pd=1.085u as=0.1469p ps=1.085u w=0.565u l=0.6u
X2 ZN A1 a_234_472# VNW pfet_06v0 ad=0.3477p pd=1.79u as=0.3782p ps=1.84u w=1.22u l=0.5u
X3 VSS A1 ZN VSUBS nfet_06v0 ad=0.1469p pd=1.085u as=0.1469p ps=1.085u w=0.565u l=0.6u
X4 a_234_472# A2 VDD VNW pfet_06v0 ad=0.3782p pd=1.84u as=0.5368p ps=3.32u w=1.22u l=0.5u
X5 VDD A2 a_672_472# VNW pfet_06v0 ad=0.5368p pd=3.32u as=0.4087p ps=1.89u w=1.22u l=0.5u
X6 VSS A2 ZN VSUBS nfet_06v0 ad=0.2486p pd=2.01u as=0.1469p ps=1.085u w=0.565u l=0.6u
X7 ZN A2 VSS VSUBS nfet_06v0 ad=0.1469p pd=1.085u as=0.2486p ps=2.01u w=0.565u l=0.6u
.ends

.subckt gf180mcu_fd_sc_mcu7t5v0__nor3_1 A3 VDD VSS ZN A1 A2 VPW VNW VSUBS
X0 ZN A1 a_448_472# VNW pfet_06v0 ad=0.5368p pd=3.32u as=0.3782p ps=1.84u w=1.22u l=0.5u
X1 ZN A1 VSS VSUBS nfet_06v0 ad=0.2046p pd=1.81u as=0.1209p ps=0.985u w=0.465u l=0.6u
X2 a_244_472# A3 VDD VNW pfet_06v0 ad=0.3172p pd=1.74u as=0.5368p ps=3.32u w=1.22u l=0.5u
X3 a_448_472# A2 a_244_472# VNW pfet_06v0 ad=0.3782p pd=1.84u as=0.3172p ps=1.74u w=1.22u l=0.5u
X4 VSS A2 ZN VSUBS nfet_06v0 ad=0.1209p pd=0.985u as=0.1209p ps=0.985u w=0.465u l=0.6u
X5 ZN A3 VSS VSUBS nfet_06v0 ad=0.1209p pd=0.985u as=0.2046p ps=1.81u w=0.465u l=0.6u
.ends

.subckt gf180mcu_fd_sc_mcu7t5v0__nand3_4 A3 VDD VSS ZN A1 A2 VPW VNW VSUBS
X0 VDD A1 ZN VNW pfet_06v0 ad=0.4334p pd=2.85u as=0.52205p ps=2.045u w=0.985u l=0.5u
X1 a_36_68# A1 ZN VSUBS nfet_06v0 ad=0.2132p pd=1.34u as=0.4161p ps=1.905u w=0.82u l=0.6u
X2 ZN A2 VDD VNW pfet_06v0 ad=0.2561p pd=1.505u as=0.30535p ps=1.605u w=0.985u l=0.5u
X3 a_36_68# A2 a_672_68# VSUBS nfet_06v0 ad=0.2132p pd=1.34u as=0.1722p ps=1.24u w=0.82u l=0.6u
X4 a_1732_68# A2 a_1528_68# VSUBS nfet_06v0 ad=0.1722p pd=1.24u as=0.1722p ps=1.24u w=0.82u l=0.6u
X5 ZN A3 VDD VNW pfet_06v0 ad=0.2561p pd=1.505u as=0.30535p ps=1.605u w=0.985u l=0.5u
X6 a_244_68# A2 a_36_68# VSUBS nfet_06v0 ad=0.1722p pd=1.24u as=0.3608p ps=2.52u w=0.82u l=0.6u
X7 a_1528_68# A3 VSS VSUBS nfet_06v0 ad=0.1722p pd=1.24u as=0.2132p ps=1.34u w=0.82u l=0.6u
X8 VDD A2 ZN VNW pfet_06v0 ad=0.2561p pd=1.505u as=0.2561p ps=1.505u w=0.985u l=0.5u
X9 ZN A1 a_36_68# VSUBS nfet_06v0 ad=0.4161p pd=1.905u as=0.2132p ps=1.34u w=0.82u l=0.6u
X10 VDD A3 ZN VNW pfet_06v0 ad=0.30535p pd=1.605u as=0.2561p ps=1.505u w=0.985u l=0.5u
X11 VDD A1 ZN VNW pfet_06v0 ad=0.30535p pd=1.605u as=0.52205p ps=2.045u w=0.985u l=0.5u
X12 a_1100_68# A2 a_36_68# VSUBS nfet_06v0 ad=0.1722p pd=1.24u as=0.2132p ps=1.34u w=0.82u l=0.6u
X13 ZN A1 VDD VNW pfet_06v0 ad=0.52205p pd=2.045u as=0.2561p ps=1.505u w=0.985u l=0.5u
X14 ZN A3 VDD VNW pfet_06v0 ad=0.2561p pd=1.505u as=0.30535p ps=1.605u w=0.985u l=0.5u
X15 ZN A1 a_1732_68# VSUBS nfet_06v0 ad=0.4161p pd=1.905u as=0.1722p ps=1.24u w=0.82u l=0.6u
X16 VSS A3 a_244_68# VSUBS nfet_06v0 ad=0.2132p pd=1.34u as=0.1722p ps=1.24u w=0.82u l=0.6u
X17 VDD A2 ZN VNW pfet_06v0 ad=0.30535p pd=1.605u as=0.2561p ps=1.505u w=0.985u l=0.5u
X18 VSS A3 a_1100_68# VSUBS nfet_06v0 ad=0.2132p pd=1.34u as=0.1722p ps=1.24u w=0.82u l=0.6u
X19 a_36_68# A1 ZN VSUBS nfet_06v0 ad=0.3608p pd=2.52u as=0.4161p ps=1.905u w=0.82u l=0.6u
X20 ZN A2 VDD VNW pfet_06v0 ad=0.2561p pd=1.505u as=0.4334p ps=2.85u w=0.985u l=0.5u
X21 a_672_68# A3 VSS VSUBS nfet_06v0 ad=0.1722p pd=1.24u as=0.2132p ps=1.34u w=0.82u l=0.6u
X22 VDD A3 ZN VNW pfet_06v0 ad=0.30535p pd=1.605u as=0.2561p ps=1.505u w=0.985u l=0.5u
X23 ZN A1 VDD VNW pfet_06v0 ad=0.52205p pd=2.045u as=0.30535p ps=1.605u w=0.985u l=0.5u
.ends

.subckt gf180mcu_fd_sc_mcu7t5v0__and2_1 VDD VSS Z A1 A2 VPW VNW VSUBS
X0 VDD A2 a_36_159# VNW pfet_06v0 ad=0.40575p pd=2.055u as=0.156p ps=1.12u w=0.6u l=0.5u
X1 Z a_36_159# VDD VNW pfet_06v0 ad=0.5346p pd=3.31u as=0.40575p ps=2.055u w=1.215u l=0.5u
X2 Z a_36_159# VSS VSUBS nfet_06v0 ad=0.3586p pd=2.51u as=0.23405p ps=1.555u w=0.815u l=0.6u
X3 VSS A2 a_244_159# VSUBS nfet_06v0 ad=0.23405p pd=1.555u as=58.399994f ps=0.685u w=0.365u l=0.6u
X4 a_244_159# A1 a_36_159# VSUBS nfet_06v0 ad=58.399994f pd=0.685u as=0.1606p ps=1.61u w=0.365u l=0.6u
X5 a_36_159# A1 VDD VNW pfet_06v0 ad=0.156p pd=1.12u as=0.264p ps=2.08u w=0.6u l=0.5u
.ends

.subckt gf180mcu_fd_sc_mcu7t5v0__aoi211_4 A2 B C VDD VSS ZN A1 VPW VNW VSUBS
X0 a_170_472# B a_3662_472# VNW pfet_06v0 ad=0.5978p pd=3.42u as=0.3172p ps=1.74u w=1.22u l=0.5u
X1 a_1194_69# A2 VSS VSUBS nfet_06v0 ad=0.1232p pd=1.09u as=0.2002p ps=1.29u w=0.77u l=0.6u
X2 ZN A1 a_1194_69# VSUBS nfet_06v0 ad=0.2002p pd=1.29u as=0.1232p ps=1.09u w=0.77u l=0.6u
X3 VSS C ZN VSUBS nfet_06v0 ad=0.2541p pd=1.605u as=0.1196p ps=0.98u w=0.46u l=0.6u
X4 a_170_472# A1 ZN VNW pfet_06v0 ad=0.3172p pd=1.74u as=0.3172p ps=1.74u w=1.22u l=0.5u
X5 ZN B VSS VSUBS nfet_06v0 ad=0.1196p pd=0.98u as=0.2384p ps=1.51u w=0.46u l=0.6u
X6 a_3126_472# B a_170_472# VNW pfet_06v0 ad=0.3172p pd=1.74u as=0.7076p ps=2.38u w=1.22u l=0.5u
X7 ZN A1 a_170_472# VNW pfet_06v0 ad=0.3172p pd=1.74u as=0.3172p ps=1.74u w=1.22u l=0.5u
X8 ZN A1 a_358_69# VSUBS nfet_06v0 ad=0.2002p pd=1.29u as=0.1617p ps=1.19u w=0.77u l=0.6u
X9 ZN C VSS VSUBS nfet_06v0 ad=0.1196p pd=0.98u as=0.2541p ps=1.605u w=0.46u l=0.6u
X10 VDD C a_3126_472# VNW pfet_06v0 ad=0.7076p pd=2.38u as=0.3172p ps=1.74u w=1.22u l=0.5u
X11 VSS A2 a_1602_69# VSUBS nfet_06v0 ad=0.2384p pd=1.51u as=0.1232p ps=1.09u w=0.77u l=0.6u
X12 VSS B ZN VSUBS nfet_06v0 ad=0.2541p pd=1.605u as=0.1196p ps=0.98u w=0.46u l=0.6u
X13 a_1602_69# A1 ZN VSUBS nfet_06v0 ad=0.1232p pd=1.09u as=0.2002p ps=1.29u w=0.77u l=0.6u
X14 a_170_472# A2 ZN VNW pfet_06v0 ad=0.4514p pd=1.96u as=0.3172p ps=1.74u w=1.22u l=0.5u
X15 a_2034_472# B a_170_472# VNW pfet_06v0 ad=0.3782p pd=1.84u as=0.4514p ps=1.96u w=1.22u l=0.5u
X16 a_2590_472# C VDD VNW pfet_06v0 ad=0.3172p pd=1.74u as=0.7076p ps=2.38u w=1.22u l=0.5u
X17 a_358_69# A2 VSS VSUBS nfet_06v0 ad=0.1617p pd=1.19u as=0.4466p ps=2.7u w=0.77u l=0.6u
X18 VSS A2 a_786_69# VSUBS nfet_06v0 ad=0.2002p pd=1.29u as=0.1232p ps=1.09u w=0.77u l=0.6u
X19 a_170_472# B a_2590_472# VNW pfet_06v0 ad=0.7076p pd=2.38u as=0.3172p ps=1.74u w=1.22u l=0.5u
X20 VSS C ZN VSUBS nfet_06v0 ad=0.264p pd=1.66u as=0.1196p ps=0.98u w=0.46u l=0.6u
X21 ZN B VSS VSUBS nfet_06v0 ad=0.1196p pd=0.98u as=0.2541p ps=1.605u w=0.46u l=0.6u
X22 ZN A2 a_170_472# VNW pfet_06v0 ad=0.3172p pd=1.74u as=0.5368p ps=3.32u w=1.22u l=0.5u
X23 a_170_472# A1 ZN VNW pfet_06v0 ad=0.3172p pd=1.74u as=0.3172p ps=1.74u w=1.22u l=0.5u
X24 ZN C VSS VSUBS nfet_06v0 ad=0.1196p pd=0.98u as=0.264p ps=1.66u w=0.46u l=0.6u
X25 VDD C a_2034_472# VNW pfet_06v0 ad=0.7076p pd=2.38u as=0.3782p ps=1.84u w=1.22u l=0.5u
X26 ZN A1 a_170_472# VNW pfet_06v0 ad=0.3172p pd=1.74u as=0.3172p ps=1.74u w=1.22u l=0.5u
X27 a_170_472# A2 ZN VNW pfet_06v0 ad=0.3172p pd=1.74u as=0.3172p ps=1.74u w=1.22u l=0.5u
X28 VSS B ZN VSUBS nfet_06v0 ad=0.2024p pd=1.8u as=0.1196p ps=0.98u w=0.46u l=0.6u
X29 a_786_69# A1 ZN VSUBS nfet_06v0 ad=0.1232p pd=1.09u as=0.2002p ps=1.29u w=0.77u l=0.6u
X30 a_3662_472# C VDD VNW pfet_06v0 ad=0.3172p pd=1.74u as=0.7076p ps=2.38u w=1.22u l=0.5u
X31 ZN A2 a_170_472# VNW pfet_06v0 ad=0.3172p pd=1.74u as=0.3172p ps=1.74u w=1.22u l=0.5u
.ends

.subckt gf180mcu_fd_sc_mcu7t5v0__nor3_4 A3 VDD VSS ZN A1 A2 VPW VNW VSUBS
X0 a_672_472# A3 VDD VNW pfet_06v0 ad=0.3782p pd=1.84u as=0.3782p ps=1.84u w=1.22u l=0.5u
X1 ZN A1 a_36_472# VNW pfet_06v0 ad=0.3782p pd=1.84u as=0.3782p ps=1.84u w=1.22u l=0.5u
X2 ZN A1 VSS VSUBS nfet_06v0 ad=0.1209p pd=0.985u as=0.1209p ps=0.985u w=0.465u l=0.6u
X3 VDD A3 a_1120_472# VNW pfet_06v0 ad=0.3782p pd=1.84u as=0.3782p ps=1.84u w=1.22u l=0.5u
X4 ZN A1 a_1792_472# VNW pfet_06v0 ad=0.3782p pd=1.84u as=0.3782p ps=1.84u w=1.22u l=0.5u
X5 VSS A2 ZN VSUBS nfet_06v0 ad=0.1209p pd=0.985u as=0.1209p ps=0.985u w=0.465u l=0.6u
X6 VSS A3 ZN VSUBS nfet_06v0 ad=0.1209p pd=0.985u as=0.1209p ps=0.985u w=0.465u l=0.6u
X7 a_1792_472# A2 a_1568_472# VNW pfet_06v0 ad=0.3782p pd=1.84u as=0.3782p ps=1.84u w=1.22u l=0.5u
X8 VSS A1 ZN VSUBS nfet_06v0 ad=0.1209p pd=0.985u as=0.1209p ps=0.985u w=0.465u l=0.6u
X9 VDD A3 a_224_472# VNW pfet_06v0 ad=0.3782p pd=1.84u as=0.3782p ps=1.84u w=1.22u l=0.5u
X10 VSS A2 ZN VSUBS nfet_06v0 ad=0.1209p pd=0.985u as=0.1209p ps=0.985u w=0.465u l=0.6u
X11 a_36_472# A1 ZN VNW pfet_06v0 ad=0.3782p pd=1.84u as=0.3782p ps=1.84u w=1.22u l=0.5u